xflr5 v6.61

Plane Name
T1-10.0 m/s-Panel-Inviscid
QInf  =   10.000000 m/s
Alpha =    5.000000
Beta  =    0.000°
Phi   =    0.000°
Ctrl  =    0.000
CL    =    0.756415
Cy    =    0.000000
Cd    =    0.018744     ICd   =    0.018744     PCd   =    0.000000
Cl   = 1.26768e-14
Cm   =   -0.386059
ICn   =   -0.000000     PCn   =   -0.000000 
XCP   =    2.056110     YCP   =   -0.000000     ZCP   =    0.779434  
XNP   =    0.000000
Bending = 19748.827583

Main Wing
  y-span        Chord      Ai         Cl        PCd          ICd        CmGeom    CmAirf@chord/4    XTrtop    XTrBot      XCP       BM
  -17.7097     1.4597    -4.660    0.254923    0.000000    0.020777   -0.304061   -0.053031     0.0000    0.0000    0.4334    0.0000
  -17.5887     1.4902    -3.255    0.415203    0.000000    0.023607   -0.479373   -0.081110     0.0000    0.0000    0.4372    0.1707
  -17.3476     1.5509    -2.257    0.548030    0.000000    0.021587   -0.598833   -0.089925     0.0000    0.0000    0.4106    2.2040
  -16.9880     1.6414    -1.661    0.646099    0.000000    0.018712   -0.674432   -0.098181     0.0000    0.0000    0.3981   10.9913
  -16.5123     1.7612    -1.292    0.714031    0.000000    0.016071   -0.703812   -0.103383     0.0000    0.0000    0.3904   35.8201
  -15.9238     1.9093    -1.062    0.758164    0.000000    0.014022   -0.698580   -0.106356     0.0000    0.0000    0.3856   91.2157
  -15.2266     2.0848    -0.930    0.784760    0.000000    0.012697   -0.671621   -0.107994     0.0000    0.0000    0.3828   197.5191
  -14.4253     2.2865    -0.867    0.798962    0.000000    0.012054   -0.633124   -0.108869     0.0000    0.0000    0.3813   381.2434
  -13.5255     2.5131    -0.856    0.804553    0.000000    0.011970   -0.590010   -0.109303     0.0000    0.0000    0.3809   675.1904
  -12.5334     2.7628    -0.881    0.804145    0.000000    0.012310   -0.546509   -0.109472     0.0000    0.0000    0.3812   1118.2643
  -11.4556     3.0342    -0.933    0.799465    0.000000    0.012963   -0.504956   -0.109476     0.0000    0.0000    0.3820   1754.9044
  -10.2995     3.3252    -1.006    0.791617    0.000000    0.013842   -0.466473   -0.109359     0.0000    0.0000    0.3832   2634.0747
   -9.0731     3.6339    -1.097    0.781288    0.000000    0.014890   -0.431471   -0.109152     0.0000    0.0000    0.3847   3807.7713
   -7.7847     3.9583    -1.203    0.768867    0.000000    0.016068   -0.399933   -0.108870     0.0000    0.0000    0.3866   5329.0499
   -6.4431     4.2960    -1.325    0.754533    0.000000    0.017356   -0.371632   -0.108510     0.0000    0.0000    0.3888   7249.6081
   -5.0575     4.6448    -1.465    0.738316    0.000000    0.018767   -0.346270   -0.108092     0.0000    0.0000    0.3913   9617.0008
   -3.6374     5.0023    -1.634    0.720064    0.000000    0.020384   -0.323540   -0.107644     0.0000    0.0000    0.3943   12471.6054
   -2.1924     5.3661    -1.868    0.699137    0.000000    0.022557   -0.303227   -0.107243     0.0000    0.0000    0.3979   15843.4501
   -0.7325     5.7336    -2.361    0.669250    0.000000    0.026994   -0.285012   -0.106820     0.0000    0.0000    0.4019   19748.8276
    0.7325     5.7336    -2.361    0.669250    0.000000    0.026994   -0.285012   -0.106820     0.0000    0.0000    0.4019   19748.8276
    2.1924     5.3661    -1.868    0.699137    0.000000    0.022557   -0.303227   -0.107243     0.0000    0.0000    0.3979   15843.4501
    3.6374     5.0023    -1.634    0.720064    0.000000    0.020384   -0.323540   -0.107644     0.0000    0.0000    0.3943   12471.6054
    5.0575     4.6448    -1.465    0.738316    0.000000    0.018767   -0.346270   -0.108092     0.0000    0.0000    0.3913   9617.0008
    6.4431     4.2960    -1.325    0.754533    0.000000    0.017356   -0.371632   -0.108510     0.0000    0.0000    0.3888   7249.6081
    7.7847     3.9583    -1.203    0.768867    0.000000    0.016068   -0.399933   -0.108870     0.0000    0.0000    0.3866   5329.0499
    9.0731     3.6339    -1.097    0.781288    0.000000    0.014890   -0.431471   -0.109152     0.0000    0.0000    0.3847   3807.7713
   10.2995     3.3252    -1.006    0.791617    0.000000    0.013842   -0.466473   -0.109359     0.0000    0.0000    0.3832   2634.0747
   11.4556     3.0342    -0.933    0.799465    0.000000    0.012963   -0.504956   -0.109476     0.0000    0.0000    0.3820   1754.9044
   12.5334     2.7628    -0.881    0.804145    0.000000    0.012310   -0.546509   -0.109472     0.0000    0.0000    0.3812   1118.2643
   13.5255     2.5131    -0.856    0.804553    0.000000    0.011970   -0.590010   -0.109303     0.0000    0.0000    0.3809   675.1904
   14.4253     2.2865    -0.867    0.798962    0.000000    0.012054   -0.633124   -0.108869     0.0000    0.0000    0.3813   381.2434
   15.2266     2.0848    -0.930    0.784760    0.000000    0.012697   -0.671621   -0.107994     0.0000    0.0000    0.3828   197.5191
   15.9238     1.9093    -1.062    0.758164    0.000000    0.014022   -0.698580   -0.106356     0.0000    0.0000    0.3856   91.2157
   16.5123     1.7612    -1.292    0.714031    0.000000    0.016071   -0.703812   -0.103383     0.0000    0.0000    0.3904   35.8201
   16.9880     1.6414    -1.661    0.646099    0.000000    0.018712   -0.674432   -0.098181     0.0000    0.0000    0.3981   10.9913
   17.3476     1.5509    -2.257    0.548030    0.000000    0.021587   -0.598833   -0.089925     0.0000    0.0000    0.4106    2.2040
   17.5887     1.4902    -3.255    0.415203    0.000000    0.023607   -0.479373   -0.081110     0.0000    0.0000    0.4372    0.1707
   17.7097     1.4597    -4.660    0.254923    0.000000    0.020777   -0.304061   -0.053031     0.0000    0.0000    0.4334    0.0000


Main Wing Cp Coefficients
 Panel     CtrlPt.x        CtrlPt.y        CtrlPt.z       Nx      Ny       Nz        Area       Cp
Main WingCp Coefficients
Strip 1
  13       2.469e+00      -1.764e+01       1.545e+00          -0.265          -0.033          -0.964       1.334e-03          0.0036
  14       2.428e+00      -1.764e+01       1.554e+00          -0.192          -0.048          -0.980       3.854e-03          0.0584
  15       2.346e+00      -1.764e+01       1.561e+00          -0.027          -0.080          -0.996       6.056e-03          0.0730
  16       2.231e+00      -1.764e+01       1.555e+00           0.115          -0.102          -0.988       8.033e-03          0.0212
  17       2.087e+00      -1.764e+01       1.530e+00           0.216          -0.114          -0.970       9.674e-03         -0.0452
  18       1.924e+00      -1.765e+01       1.496e+00           0.196          -0.113          -0.974       1.057e-02         -0.1641
  19       1.750e+00      -1.765e+01       1.473e+00           0.070          -0.104          -0.992       1.070e-02         -0.1978
  20       1.577e+00      -1.765e+01       1.465e+00           0.018          -0.101          -0.995       1.037e-02         -0.1421
  21       1.413e+00      -1.765e+01       1.465e+00          -0.019          -0.100          -0.995       9.457e-03         -0.1085
  22       1.270e+00      -1.765e+01       1.471e+00          -0.061          -0.100          -0.993       8.007e-03         -0.0850
  23       1.154e+00      -1.765e+01       1.482e+00          -0.145          -0.102          -0.984       6.129e-03         -0.0357
  24       1.073e+00      -1.765e+01       1.500e+00          -0.323          -0.105          -0.940       3.999e-03          0.1326
  25       1.031e+00      -1.764e+01       1.527e+00          -0.841          -0.095          -0.533       2.384e-03          0.9041
  26       1.031e+00      -1.764e+01       1.560e+00          -0.839          -0.001           0.544       2.370e-03         -0.3313
  27       1.073e+00      -1.764e+01       1.586e+00          -0.303           0.061           0.951       3.964e-03         -1.1014
  28       1.154e+00      -1.764e+01       1.603e+00          -0.137           0.071           0.988       6.107e-03         -0.5636
  29       1.270e+00      -1.764e+01       1.614e+00          -0.064           0.074           0.995       7.986e-03         -0.3715
  30       1.413e+00      -1.764e+01       1.620e+00          -0.028           0.074           0.997       9.430e-03         -0.2841
  31       1.577e+00      -1.764e+01       1.623e+00          -0.004           0.074           0.997       1.034e-02         -0.2440
  32       1.750e+00      -1.764e+01       1.622e+00           0.015           0.073           0.997       1.065e-02         -0.2270
  33       1.924e+00      -1.764e+01       1.618e+00           0.036           0.071           0.997       1.034e-02         -0.2316
  34       2.087e+00      -1.764e+01       1.609e+00           0.070           0.067           0.995       9.452e-03         -0.2718
  35       2.231e+00      -1.764e+01       1.595e+00           0.123           0.059           0.991       8.036e-03         -0.3489
  36       2.346e+00      -1.764e+01       1.577e+00           0.200           0.046           0.979       6.181e-03         -0.4141
  37       2.428e+00      -1.764e+01       1.558e+00           0.274           0.031           0.961       3.935e-03         -0.4059
  38       2.469e+00      -1.764e+01       1.546e+00           0.326           0.019           0.945       1.362e-03         -0.3615
Strip 2
  39       2.493e+00      -1.752e+01       1.534e+00          -0.265          -0.033          -0.964       4.077e-03          0.1620
  40       2.450e+00      -1.752e+01       1.544e+00          -0.192          -0.048          -0.980       1.178e-02          0.2418
  41       2.367e+00      -1.752e+01       1.551e+00          -0.027          -0.080          -0.996       1.851e-02          0.2967
  42       2.249e+00      -1.752e+01       1.545e+00           0.115          -0.102          -0.988       2.455e-02          0.2451
  43       2.102e+00      -1.752e+01       1.519e+00           0.216          -0.114          -0.970       2.956e-02          0.1064
  44       1.935e+00      -1.753e+01       1.485e+00           0.196          -0.113          -0.974       3.230e-02         -0.1081
  45       1.758e+00      -1.753e+01       1.461e+00           0.070          -0.104          -0.992       3.271e-02         -0.1953
  46       1.581e+00      -1.753e+01       1.453e+00           0.018          -0.101          -0.995       3.169e-02         -0.1408
  47       1.415e+00      -1.753e+01       1.453e+00          -0.019          -0.100          -0.995       2.890e-02         -0.0994
  48       1.268e+00      -1.753e+01       1.459e+00          -0.061          -0.100          -0.993       2.447e-02         -0.0674
  49       1.150e+00      -1.753e+01       1.470e+00          -0.145          -0.102          -0.984       1.873e-02          0.0083
  50       1.067e+00      -1.753e+01       1.488e+00          -0.323          -0.105          -0.940       1.222e-02          0.2529
  51       1.024e+00      -1.752e+01       1.516e+00          -0.841          -0.095          -0.533       7.285e-03          0.9600
  52       1.024e+00      -1.752e+01       1.550e+00          -0.839          -0.001           0.544       7.242e-03         -0.6770
  53       1.067e+00      -1.752e+01       1.576e+00          -0.303           0.061           0.951       1.211e-02         -1.4589
  54       1.150e+00      -1.752e+01       1.594e+00          -0.137           0.071           0.988       1.866e-02         -0.7692
  55       1.268e+00      -1.752e+01       1.605e+00          -0.064           0.074           0.995       2.440e-02         -0.4981
  56       1.415e+00      -1.752e+01       1.611e+00          -0.028           0.074           0.997       2.881e-02         -0.3636
  57       1.581e+00      -1.751e+01       1.614e+00          -0.004           0.074           0.997       3.158e-02         -0.3001
  58       1.758e+00      -1.752e+01       1.613e+00           0.015           0.073           0.997       3.253e-02         -0.2770
  59       1.935e+00      -1.752e+01       1.609e+00           0.036           0.071           0.997       3.161e-02         -0.2840
  60       2.102e+00      -1.752e+01       1.600e+00           0.070           0.067           0.995       2.888e-02         -0.3162
  61       2.249e+00      -1.752e+01       1.586e+00           0.123           0.059           0.991       2.455e-02         -0.3581
  62       2.367e+00      -1.752e+01       1.567e+00           0.200           0.046           0.979       1.889e-02         -0.3606
  63       2.450e+00      -1.752e+01       1.548e+00           0.274           0.031           0.961       1.202e-02         -0.2620
  64       2.493e+00      -1.752e+01       1.535e+00           0.326           0.019           0.945       4.161e-03         -0.1627
Strip 3
  65       2.539e+00      -1.728e+01       1.513e+00          -0.265          -0.033          -0.964       7.038e-03          0.2935
  66       2.495e+00      -1.728e+01       1.523e+00          -0.192          -0.048          -0.980       2.033e-02          0.3675
  67       2.408e+00      -1.728e+01       1.531e+00          -0.027          -0.080          -0.996       3.195e-02          0.4143
  68       2.285e+00      -1.728e+01       1.524e+00           0.115          -0.102          -0.988       4.238e-02          0.3493
  69       2.133e+00      -1.728e+01       1.498e+00           0.216          -0.114          -0.970       5.105e-02          0.1918
  70       1.959e+00      -1.729e+01       1.462e+00           0.196          -0.113          -0.974       5.578e-02         -0.0496
  71       1.775e+00      -1.729e+01       1.437e+00           0.070          -0.104          -0.992       5.648e-02         -0.1621
  72       1.591e+00      -1.729e+01       1.429e+00           0.018          -0.101          -0.995       5.471e-02         -0.1140
  73       1.417e+00      -1.729e+01       1.429e+00          -0.019          -0.100          -0.995       4.990e-02         -0.0622
  74       1.264e+00      -1.729e+01       1.435e+00          -0.061          -0.100          -0.993       4.225e-02         -0.0078
  75       1.141e+00      -1.729e+01       1.447e+00          -0.145          -0.102          -0.984       3.234e-02          0.1055
  76       1.055e+00      -1.729e+01       1.466e+00          -0.323          -0.105          -0.941       2.110e-02          0.3996
  77       1.011e+00      -1.728e+01       1.494e+00          -0.841          -0.095          -0.533       1.258e-02          0.9813
  78       1.011e+00      -1.728e+01       1.529e+00          -0.839          -0.001           0.544       1.250e-02         -0.9930
  79       1.055e+00      -1.728e+01       1.557e+00          -0.303           0.061           0.951       2.091e-02         -1.7417
  80       1.141e+00      -1.728e+01       1.575e+00          -0.137           0.071           0.988       3.222e-02         -0.9453
  81       1.264e+00      -1.728e+01       1.587e+00          -0.064           0.074           0.995       4.213e-02         -0.6308
  82       1.417e+00      -1.728e+01       1.594e+00          -0.028           0.074           0.997       4.975e-02         -0.4631
  83       1.591e+00      -1.727e+01       1.596e+00          -0.004           0.074           0.997       5.453e-02         -0.3754
  84       1.775e+00      -1.727e+01       1.595e+00           0.015           0.073           0.997       5.617e-02         -0.3352
  85       1.959e+00      -1.728e+01       1.591e+00           0.036           0.071           0.997       5.457e-02         -0.3234
  86       2.133e+00      -1.728e+01       1.582e+00           0.070           0.067           0.995       4.987e-02         -0.3275
  87       2.285e+00      -1.728e+01       1.567e+00           0.123           0.059           0.991       4.239e-02         -0.3305
  88       2.408e+00      -1.728e+01       1.548e+00           0.200           0.046           0.979       3.261e-02         -0.2806
  89       2.495e+00      -1.728e+01       1.527e+00           0.274           0.031           0.961       2.076e-02         -0.1132
  90       2.539e+00      -1.728e+01       1.514e+00           0.326           0.019           0.945       7.183e-03          0.0269
Strip 4
  91       2.608e+00      -1.692e+01       1.482e+00          -0.265          -0.033          -0.964       1.035e-02          0.3224
  92       2.561e+00      -1.692e+01       1.492e+00          -0.192          -0.048          -0.980       2.991e-02          0.3948
  93       2.470e+00      -1.692e+01       1.501e+00          -0.027          -0.080          -0.996       4.702e-02          0.4408
  94       2.340e+00      -1.692e+01       1.494e+00           0.115          -0.102          -0.988       6.238e-02          0.3788
  95       2.178e+00      -1.692e+01       1.466e+00           0.215          -0.114          -0.970       7.514e-02          0.2279
  96       1.994e+00      -1.693e+01       1.427e+00           0.196          -0.113          -0.974       8.209e-02         -0.0083
  97       1.799e+00      -1.693e+01       1.401e+00           0.070          -0.104          -0.992       8.311e-02         -0.1235
  98       1.604e+00      -1.693e+01       1.393e+00           0.018          -0.101          -0.995       8.052e-02         -0.0786
  99       1.421e+00      -1.693e+01       1.393e+00          -0.019          -0.100          -0.995       7.343e-02         -0.0222
 100       1.259e+00      -1.693e+01       1.399e+00          -0.061          -0.100          -0.993       6.217e-02          0.0440
 101       1.129e+00      -1.693e+01       1.411e+00          -0.145          -0.102          -0.984       4.759e-02          0.1748
 102       1.038e+00      -1.693e+01       1.432e+00          -0.323          -0.105          -0.941       3.106e-02          0.4919
 103       9.906e-01      -1.692e+01       1.462e+00          -0.840          -0.095          -0.533       1.852e-02          0.9645
 104       9.906e-01      -1.692e+01       1.499e+00          -0.839          -0.001           0.544       1.840e-02         -1.2656
 105       1.038e+00      -1.692e+01       1.529e+00          -0.303           0.061           0.951       3.077e-02         -1.9642
 106       1.129e+00      -1.692e+01       1.547e+00          -0.137           0.071           0.988       4.742e-02         -1.0721
 107       1.259e+00      -1.692e+01       1.560e+00          -0.064           0.074           0.995       6.200e-02         -0.7283
 108       1.421e+00      -1.692e+01       1.567e+00          -0.028           0.074           0.997       7.321e-02         -0.5444
 109       1.604e+00      -1.692e+01       1.570e+00          -0.004           0.074           0.997       8.025e-02         -0.4438
 110       1.799e+00      -1.692e+01       1.569e+00           0.015           0.073           0.997       8.266e-02         -0.3914
 111       1.994e+00      -1.692e+01       1.564e+00           0.036           0.071           0.997       8.031e-02         -0.3670
 112       2.178e+00      -1.692e+01       1.554e+00           0.070           0.067           0.995       7.338e-02         -0.3580
 113       2.340e+00      -1.692e+01       1.539e+00           0.123           0.059           0.991       6.238e-02         -0.3467
 114       2.470e+00      -1.692e+01       1.518e+00           0.200           0.046           0.979       4.797e-02         -0.2783
 115       2.561e+00      -1.692e+01       1.497e+00           0.274           0.031           0.961       3.053e-02         -0.0879
 116       2.608e+00      -1.692e+01       1.483e+00           0.326           0.019           0.945       1.057e-02          0.0658
Strip 5
 117       2.700e+00      -1.645e+01       1.441e+00          -0.265          -0.033          -0.964       1.415e-02          0.3320
 118       2.649e+00      -1.645e+01       1.452e+00          -0.193          -0.048          -0.980       4.088e-02          0.4042
 119       2.551e+00      -1.645e+01       1.461e+00          -0.027          -0.080          -0.996       6.427e-02          0.4503
 120       2.412e+00      -1.645e+01       1.453e+00           0.115          -0.102          -0.988       8.528e-02          0.3902
 121       2.238e+00      -1.645e+01       1.423e+00           0.215          -0.114          -0.970       1.027e-01          0.2448
 122       2.041e+00      -1.645e+01       1.382e+00           0.196          -0.113          -0.974       1.122e-01          0.0169
 123       1.832e+00      -1.646e+01       1.354e+00           0.070          -0.104          -0.992       1.136e-01         -0.0937
 124       1.623e+00      -1.646e+01       1.345e+00           0.018          -0.101          -0.995       1.101e-01         -0.0480
 125       1.426e+00      -1.646e+01       1.345e+00          -0.019          -0.100          -0.995       1.004e-01          0.0112
 126       1.252e+00      -1.646e+01       1.351e+00          -0.061          -0.100          -0.993       8.498e-02          0.0832
 127       1.112e+00      -1.645e+01       1.365e+00          -0.145          -0.102          -0.984       6.505e-02          0.2235
 128       1.014e+00      -1.645e+01       1.386e+00          -0.323          -0.105          -0.941       4.246e-02          0.5536
 129       9.641e-01      -1.645e+01       1.419e+00          -0.840          -0.095          -0.534       2.531e-02          0.9392
 130       9.641e-01      -1.645e+01       1.459e+00          -0.839          -0.001           0.543       2.514e-02         -1.4811
 131       1.014e+00      -1.645e+01       1.491e+00          -0.303           0.061           0.951       4.206e-02         -2.1324
 132       1.112e+00      -1.644e+01       1.511e+00          -0.137           0.071           0.988       6.481e-02         -1.1627
 133       1.252e+00      -1.644e+01       1.524e+00          -0.064           0.074           0.995       8.475e-02         -0.7953
 134       1.426e+00      -1.644e+01       1.532e+00          -0.028           0.074           0.997       1.001e-01         -0.5999
 135       1.623e+00      -1.644e+01       1.535e+00          -0.004           0.074           0.997       1.097e-01         -0.4913
 136       1.832e+00      -1.644e+01       1.534e+00           0.015           0.073           0.997       1.130e-01         -0.4313
 137       2.041e+00      -1.644e+01       1.529e+00           0.036           0.071           0.997       1.098e-01         -0.3989
 138       2.238e+00      -1.644e+01       1.518e+00           0.070           0.067           0.995       1.003e-01         -0.3818
 139       2.412e+00      -1.645e+01       1.502e+00           0.123           0.059           0.991       8.525e-02         -0.3621
 140       2.551e+00      -1.645e+01       1.480e+00           0.200           0.046           0.979       6.556e-02         -0.2840
 141       2.649e+00      -1.645e+01       1.457e+00           0.274           0.031           0.961       4.172e-02         -0.0823
 142       2.700e+00      -1.645e+01       1.442e+00           0.326           0.019           0.945       1.444e-02          0.0780
Strip 6
 143       2.813e+00      -1.586e+01       1.390e+00          -0.265          -0.033          -0.964       1.852e-02          0.3362
 144       2.758e+00      -1.586e+01       1.401e+00          -0.193          -0.048          -0.980       5.353e-02          0.4083
 145       2.652e+00      -1.586e+01       1.411e+00          -0.027          -0.080          -0.996       8.418e-02          0.4545
 146       2.500e+00      -1.586e+01       1.403e+00           0.115          -0.102          -0.988       1.117e-01          0.3957
 147       2.312e+00      -1.586e+01       1.370e+00           0.215          -0.114          -0.970       1.346e-01          0.2538
 148       2.099e+00      -1.587e+01       1.326e+00           0.196          -0.113          -0.974       1.470e-01          0.0319
 149       1.872e+00      -1.587e+01       1.295e+00           0.070          -0.104          -0.992       1.488e-01         -0.0742
 150       1.645e+00      -1.587e+01       1.285e+00           0.018          -0.101          -0.995       1.442e-01         -0.0267
 151       1.432e+00      -1.587e+01       1.285e+00          -0.019          -0.100          -0.995       1.315e-01          0.0346
 152       1.244e+00      -1.587e+01       1.292e+00          -0.061          -0.100          -0.993       1.113e-01          0.1100
 153       1.092e+00      -1.587e+01       1.307e+00          -0.145          -0.102          -0.984       8.521e-02          0.2562
 154       9.859e-01      -1.587e+01       1.331e+00          -0.323          -0.105          -0.941       5.562e-02          0.5938
 155       9.312e-01      -1.586e+01       1.366e+00          -0.840          -0.095          -0.534       3.316e-02          0.9158
 156       9.312e-01      -1.586e+01       1.409e+00          -0.840          -0.001           0.543       3.293e-02         -1.6357
 157       9.859e-01      -1.586e+01       1.444e+00          -0.303           0.061           0.951       5.509e-02         -2.2495
 158       1.092e+00      -1.586e+01       1.466e+00          -0.137           0.071           0.988       8.489e-02         -1.2235
 159       1.244e+00      -1.586e+01       1.480e+00          -0.064           0.074           0.995       1.110e-01         -0.8387
 160       1.432e+00      -1.586e+01       1.489e+00          -0.028           0.074           0.997       1.311e-01         -0.6349
 161       1.645e+00      -1.586e+01       1.492e+00          -0.004           0.074           0.997       1.437e-01         -0.5209
 162       1.872e+00      -1.586e+01       1.491e+00           0.015           0.073           0.997       1.480e-01         -0.4561
 163       2.099e+00      -1.586e+01       1.485e+00           0.037           0.071           0.997       1.438e-01         -0.4189
 164       2.312e+00      -1.586e+01       1.474e+00           0.070           0.067           0.995       1.314e-01         -0.3971
 165       2.500e+00      -1.586e+01       1.456e+00           0.123           0.059           0.991       1.117e-01         -0.3728
 166       2.652e+00      -1.586e+01       1.432e+00           0.200           0.046           0.979       8.585e-02         -0.2892
 167       2.758e+00      -1.586e+01       1.407e+00           0.274           0.031           0.961       5.463e-02         -0.0812
 168       2.813e+00      -1.586e+01       1.391e+00           0.326           0.019           0.945       1.890e-02          0.0829
Strip 7
 169       2.947e+00      -1.517e+01       1.329e+00          -0.265          -0.033          -0.964       2.357e-02          0.3382
 170       2.887e+00      -1.517e+01       1.342e+00          -0.193          -0.048          -0.980       6.811e-02          0.4104
 171       2.771e+00      -1.517e+01       1.353e+00          -0.027          -0.080          -0.996       1.071e-01          0.4567
 172       2.606e+00      -1.517e+01       1.344e+00           0.115          -0.102          -0.988       1.422e-01          0.3986
 173       2.401e+00      -1.517e+01       1.308e+00           0.215          -0.114          -0.970       1.713e-01          0.2588
 174       2.167e+00      -1.517e+01       1.259e+00           0.196          -0.113          -0.974       1.871e-01          0.0407
 175       1.920e+00      -1.517e+01       1.226e+00           0.070          -0.104          -0.992       1.894e-01         -0.0625
 176       1.672e+00      -1.517e+01       1.215e+00           0.018          -0.101          -0.995       1.835e-01         -0.0137
 177       1.439e+00      -1.517e+01       1.215e+00          -0.019          -0.100          -0.995       1.673e-01          0.0490
 178       1.233e+00      -1.517e+01       1.223e+00          -0.061          -0.100          -0.993       1.417e-01          0.1266
 179       1.068e+00      -1.517e+01       1.239e+00          -0.145          -0.102          -0.984       1.084e-01          0.2764
 180       9.520e-01      -1.517e+01       1.265e+00          -0.323          -0.105          -0.941       7.079e-02          0.6179
 181       8.923e-01      -1.517e+01       1.303e+00          -0.840          -0.095          -0.534       4.221e-02          0.8990
 182       8.923e-01      -1.517e+01       1.351e+00          -0.840          -0.001           0.543       4.190e-02         -1.7344
 183       9.520e-01      -1.517e+01       1.388e+00          -0.303           0.061           0.951       7.010e-02         -2.3230
 184       1.068e+00      -1.516e+01       1.412e+00          -0.137           0.071           0.988       1.080e-01         -1.2608
 185       1.233e+00      -1.516e+01       1.428e+00          -0.064           0.074           0.995       1.413e-01         -0.8648
 186       1.439e+00      -1.516e+01       1.437e+00          -0.028           0.074           0.997       1.668e-01         -0.6557
 187       1.672e+00      -1.516e+01       1.441e+00          -0.004           0.074           0.997       1.829e-01         -0.5382
 188       1.920e+00      -1.516e+01       1.439e+00           0.015           0.073           0.997       1.883e-01         -0.4705
 189       2.167e+00      -1.516e+01       1.433e+00           0.037           0.071           0.997       1.830e-01         -0.4305
 190       2.401e+00      -1.516e+01       1.421e+00           0.070           0.067           0.995       1.672e-01         -0.4062
 191       2.606e+00      -1.516e+01       1.402e+00           0.124           0.059           0.991       1.421e-01         -0.3793
 192       2.771e+00      -1.517e+01       1.375e+00           0.200           0.046           0.979       1.092e-01         -0.2925
 193       2.887e+00      -1.517e+01       1.348e+00           0.274           0.031           0.961       6.950e-02         -0.0809
 194       2.947e+00      -1.517e+01       1.330e+00           0.326           0.019           0.945       2.405e-02          0.0853
Strip 8
 195       3.101e+00      -1.437e+01       1.259e+00          -0.265          -0.033          -0.964       2.933e-02          0.3392
 196       3.035e+00      -1.437e+01       1.274e+00          -0.193          -0.048          -0.980       8.477e-02          0.4114
 197       2.908e+00      -1.437e+01       1.285e+00          -0.027          -0.080          -0.996       1.334e-01          0.4578
 198       2.727e+00      -1.437e+01       1.275e+00           0.115          -0.102          -0.988       1.771e-01          0.4001
 199       2.502e+00      -1.437e+01       1.236e+00           0.215          -0.114          -0.970       2.133e-01          0.2615
 200       2.246e+00      -1.437e+01       1.183e+00           0.196          -0.113          -0.974       2.330e-01          0.0454
 201       1.974e+00      -1.438e+01       1.146e+00           0.070          -0.104          -0.992       2.358e-01         -0.0560
 202       1.703e+00      -1.438e+01       1.134e+00           0.018          -0.101          -0.995       2.284e-01         -0.0064
 203       1.447e+00      -1.438e+01       1.134e+00          -0.019          -0.100          -0.995       2.083e-01          0.0570
 204       1.222e+00      -1.438e+01       1.143e+00          -0.061          -0.100          -0.993       1.764e-01          0.1357
 205       1.040e+00      -1.437e+01       1.161e+00          -0.145          -0.102          -0.984       1.350e-01          0.2871
 206       9.131e-01      -1.437e+01       1.189e+00          -0.323          -0.105          -0.941       8.814e-02          0.6304
 207       8.477e-01      -1.437e+01       1.231e+00          -0.840          -0.095          -0.534       5.256e-02          0.8896
 208       8.477e-01      -1.437e+01       1.283e+00          -0.840          -0.001           0.543       5.215e-02         -1.7872
 209       9.131e-01      -1.437e+01       1.324e+00          -0.303           0.061           0.951       8.726e-02         -2.3622
 210       1.040e+00      -1.437e+01       1.351e+00          -0.137           0.071           0.988       1.345e-01         -1.2807
 211       1.222e+00      -1.437e+01       1.368e+00          -0.064           0.074           0.995       1.759e-01         -0.8787
 212       1.447e+00      -1.437e+01       1.378e+00          -0.028           0.074           0.997       2.077e-01         -0.6667
 213       1.703e+00      -1.436e+01       1.382e+00          -0.004           0.074           0.997       2.277e-01         -0.5474
 214       1.974e+00      -1.436e+01       1.381e+00           0.015           0.073           0.997       2.345e-01         -0.4781
 215       2.246e+00      -1.437e+01       1.374e+00           0.037           0.071           0.997       2.278e-01         -0.4367
 216       2.502e+00      -1.437e+01       1.360e+00           0.070           0.067           0.995       2.081e-01         -0.4111
 217       2.727e+00      -1.437e+01       1.339e+00           0.124           0.059           0.991       1.769e-01         -0.3827
 218       2.908e+00      -1.437e+01       1.310e+00           0.200           0.046           0.979       1.360e-01         -0.2943
 219       3.035e+00      -1.437e+01       1.280e+00           0.274           0.031           0.961       8.650e-02         -0.0808
 220       3.101e+00      -1.437e+01       1.261e+00           0.326           0.019           0.945       2.993e-02          0.0866
Strip 9
 221       3.274e+00      -1.347e+01       1.181e+00          -0.265          -0.033          -0.964       3.584e-02          0.3399
 222       3.202e+00      -1.347e+01       1.197e+00          -0.193          -0.048          -0.980       1.036e-01          0.4120
 223       3.062e+00      -1.347e+01       1.210e+00          -0.027          -0.080          -0.996       1.630e-01          0.4583
 224       2.863e+00      -1.347e+01       1.199e+00           0.115          -0.102          -0.988       2.165e-01          0.4007
 225       2.615e+00      -1.347e+01       1.156e+00           0.215          -0.114          -0.970       2.608e-01          0.2626
 226       2.334e+00      -1.348e+01       1.097e+00           0.196          -0.113          -0.974       2.849e-01          0.0475
 227       2.036e+00      -1.348e+01       1.057e+00           0.070          -0.104          -0.992       2.883e-01         -0.0531
 228       1.737e+00      -1.348e+01       1.044e+00           0.018          -0.101          -0.995       2.792e-01         -0.0032
 229       1.456e+00      -1.348e+01       1.044e+00          -0.019          -0.100          -0.995       2.546e-01          0.0604
 230       1.209e+00      -1.348e+01       1.053e+00          -0.061          -0.100          -0.993       2.156e-01          0.1393
 231       1.009e+00      -1.348e+01       1.073e+00          -0.145          -0.102          -0.984       1.651e-01          0.2911
 232       8.694e-01      -1.348e+01       1.104e+00          -0.323          -0.105          -0.941       1.078e-01          0.6347
 233       7.975e-01      -1.348e+01       1.150e+00          -0.840          -0.095          -0.535       6.426e-02          0.8865
 234       7.975e-01      -1.347e+01       1.207e+00          -0.840          -0.001           0.542       6.374e-02         -1.8052
 235       8.694e-01      -1.347e+01       1.252e+00          -0.303           0.061           0.951       1.067e-01         -2.3760
 236       1.009e+00      -1.347e+01       1.281e+00          -0.137           0.071           0.988       1.644e-01         -1.2880
 237       1.209e+00      -1.347e+01       1.301e+00          -0.064           0.074           0.995       2.150e-01         -0.8840
 238       1.456e+00      -1.347e+01       1.312e+00          -0.028           0.074           0.997       2.539e-01         -0.6711
 239       1.737e+00      -1.347e+01       1.316e+00          -0.004           0.074           0.997       2.783e-01         -0.5512
 240       2.036e+00      -1.347e+01       1.314e+00           0.015           0.073           0.997       2.866e-01         -0.4813
 241       2.334e+00      -1.347e+01       1.307e+00           0.037           0.071           0.997       2.785e-01         -0.4393
 242       2.615e+00      -1.347e+01       1.292e+00           0.070           0.067           0.995       2.544e-01         -0.4131
 243       2.863e+00      -1.347e+01       1.269e+00           0.124           0.059           0.991       2.162e-01         -0.3841
 244       3.062e+00      -1.347e+01       1.237e+00           0.200           0.046           0.979       1.662e-01         -0.2949
 245       3.202e+00      -1.347e+01       1.204e+00           0.274           0.031           0.961       1.057e-01         -0.0804
 246       3.274e+00      -1.347e+01       1.182e+00           0.327           0.019           0.945       3.657e-02          0.0877
Strip 10
 247       3.465e+00      -1.249e+01       1.095e+00          -0.265          -0.033          -0.964       4.310e-02          0.3402
 248       3.386e+00      -1.249e+01       1.112e+00          -0.193          -0.048          -0.980       1.246e-01          0.4122
 249       3.232e+00      -1.248e+01       1.126e+00          -0.027          -0.080          -0.996       1.961e-01          0.4584
 250       3.013e+00      -1.248e+01       1.114e+00           0.115          -0.102          -0.988       2.604e-01          0.4008
 251       2.741e+00      -1.249e+01       1.067e+00           0.215          -0.114          -0.970       3.138e-01          0.2628
 252       2.432e+00      -1.249e+01       1.002e+00           0.196          -0.113          -0.974       3.427e-01          0.0480
 253       2.103e+00      -1.249e+01       9.581e-01           0.070          -0.104          -0.992       3.467e-01         -0.0525
 254       1.775e+00      -1.249e+01       9.436e-01           0.018          -0.101          -0.995       3.359e-01         -0.0028
 255       1.466e+00      -1.249e+01       9.435e-01          -0.019          -0.100          -0.995       3.063e-01          0.0605
 256       1.194e+00      -1.249e+01       9.540e-01          -0.061          -0.100          -0.993       2.593e-01          0.1391
 257       9.749e-01      -1.249e+01       9.755e-01          -0.144          -0.102          -0.984       1.985e-01          0.2903
 258       8.212e-01      -1.249e+01       1.010e+00          -0.323          -0.105          -0.941       1.296e-01          0.6332
 259       7.421e-01      -1.249e+01       1.061e+00          -0.840          -0.095          -0.535       7.731e-02          0.8883
 260       7.421e-01      -1.248e+01       1.123e+00          -0.840          -0.001           0.542       7.666e-02         -1.7976
 261       8.212e-01      -1.248e+01       1.173e+00          -0.303           0.061           0.951       1.283e-01         -2.3714
 262       9.749e-01      -1.248e+01       1.205e+00          -0.137           0.071           0.988       1.977e-01         -1.2863
 263       1.194e+00      -1.248e+01       1.226e+00          -0.064           0.074           0.995       2.586e-01         -0.8834
 264       1.466e+00      -1.248e+01       1.238e+00          -0.028           0.074           0.997       3.054e-01         -0.6711
 265       1.775e+00      -1.248e+01       1.243e+00          -0.004           0.074           0.997       3.347e-01         -0.5514
 266       2.103e+00      -1.248e+01       1.242e+00           0.015           0.073           0.997       3.448e-01         -0.4816
 267       2.432e+00      -1.248e+01       1.233e+00           0.037           0.071           0.997       3.349e-01         -0.4395
 268       2.741e+00      -1.248e+01       1.217e+00           0.070           0.067           0.995       3.060e-01         -0.4132
 269       3.013e+00      -1.248e+01       1.191e+00           0.124           0.059           0.991       2.600e-01         -0.3842
 270       3.232e+00      -1.248e+01       1.156e+00           0.200           0.046           0.979       1.998e-01         -0.2947
 271       3.386e+00      -1.248e+01       1.120e+00           0.274           0.031           0.961       1.271e-01         -0.0799
 272       3.465e+00      -1.249e+01       1.096e+00           0.327           0.019           0.945       4.397e-02          0.0885
Strip 11
 273       3.672e+00      -1.141e+01       1.001e+00          -0.265          -0.033          -0.964       5.106e-02          0.3403
 274       3.585e+00      -1.141e+01       1.020e+00          -0.193          -0.048          -0.980       1.476e-01          0.4122
 275       3.416e+00      -1.141e+01       1.036e+00          -0.027          -0.080          -0.996       2.324e-01          0.4582
 276       3.176e+00      -1.141e+01       1.022e+00           0.115          -0.102          -0.988       3.086e-01          0.4004
 277       2.877e+00      -1.141e+01       9.707e-01           0.215          -0.114          -0.970       3.719e-01          0.2623
 278       2.537e+00      -1.141e+01       8.994e-01           0.196          -0.113          -0.974       4.062e-01          0.0472
 279       2.177e+00      -1.142e+01       8.510e-01           0.070          -0.104          -0.992       4.109e-01         -0.0536
 280       1.817e+00      -1.142e+01       8.349e-01           0.018          -0.101          -0.995       3.980e-01         -0.0042
 281       1.477e+00      -1.142e+01       8.349e-01          -0.019          -0.100          -0.995       3.630e-01          0.0585
 282       1.178e+00      -1.142e+01       8.464e-01          -0.061          -0.100          -0.993       3.073e-01          0.1361
 283       9.376e-01      -1.142e+01       8.700e-01          -0.144          -0.102          -0.984       2.353e-01          0.2860
 284       7.689e-01      -1.141e+01       9.074e-01          -0.323          -0.105          -0.941       1.536e-01          0.6274
 285       6.820e-01      -1.141e+01       9.640e-01          -0.839          -0.095          -0.535       9.163e-02          0.8936
 286       6.820e-01      -1.141e+01       1.033e+00          -0.840          -0.001           0.542       9.084e-02         -1.7712
 287       7.689e-01      -1.141e+01       1.087e+00          -0.303           0.061           0.951       1.520e-01         -2.3531
 288       9.376e-01      -1.141e+01       1.122e+00          -0.137           0.071           0.988       2.344e-01         -1.2782
 289       1.178e+00      -1.141e+01       1.146e+00          -0.064           0.074           0.995       3.065e-01         -0.8787
 290       1.477e+00      -1.141e+01       1.159e+00          -0.028           0.074           0.997       3.619e-01         -0.6679
 291       1.817e+00      -1.141e+01       1.164e+00          -0.004           0.074           0.997       3.967e-01         -0.5490
 292       2.177e+00      -1.141e+01       1.162e+00           0.015           0.073           0.997       4.086e-01         -0.4799
 293       2.537e+00      -1.141e+01       1.153e+00           0.037           0.071           0.997       3.969e-01         -0.4381
 294       2.877e+00      -1.141e+01       1.135e+00           0.070           0.067           0.995       3.626e-01         -0.4122
 295       3.176e+00      -1.141e+01       1.107e+00           0.124           0.059           0.991       3.081e-01         -0.3833
 296       3.416e+00      -1.141e+01       1.069e+00           0.200           0.046           0.979       2.368e-01         -0.2940
 297       3.585e+00      -1.141e+01       1.029e+00           0.275           0.031           0.961       1.506e-01         -0.0793
 298       3.672e+00      -1.141e+01       1.003e+00           0.327           0.019           0.945       5.209e-02          0.0891
Strip 12
 299       3.894e+00      -1.026e+01       9.008e-01          -0.265          -0.033          -0.964       5.967e-02          0.3403
 300       3.799e+00      -1.026e+01       9.214e-01          -0.193          -0.048          -0.980       1.725e-01          0.4120
 301       3.614e+00      -1.026e+01       9.384e-01          -0.027          -0.080          -0.996       2.716e-01          0.4578
 302       3.350e+00      -1.026e+01       9.240e-01           0.115          -0.102          -0.988       3.608e-01          0.3998
 303       3.023e+00      -1.026e+01       8.673e-01           0.215          -0.114          -0.970       4.347e-01          0.2613
 304       2.651e+00      -1.026e+01       7.891e-01           0.196          -0.113          -0.974       4.748e-01          0.0456
 305       2.256e+00      -1.026e+01       7.360e-01           0.070          -0.104          -0.992       4.803e-01         -0.0558
 306       1.861e+00      -1.026e+01       7.184e-01           0.018          -0.101          -0.995       4.652e-01         -0.0071
 307       1.489e+00      -1.026e+01       7.184e-01          -0.019          -0.100          -0.995       4.243e-01          0.0548
 308       1.161e+00      -1.026e+01       7.310e-01          -0.061          -0.100          -0.993       3.592e-01          0.1312
 309       8.976e-01      -1.026e+01       7.569e-01          -0.144          -0.102          -0.984       2.750e-01          0.2791
 310       7.127e-01      -1.026e+01       7.979e-01          -0.323          -0.105          -0.941       1.796e-01          0.6183
 311       6.175e-01      -1.026e+01       8.599e-01          -0.839          -0.095          -0.535       1.071e-01          0.9012
 312       6.175e-01      -1.026e+01       9.351e-01          -0.840          -0.001           0.542       1.062e-01         -1.7311
 313       7.127e-01      -1.026e+01       9.952e-01          -0.303           0.061           0.951       1.777e-01         -2.3251
 314       8.976e-01      -1.026e+01       1.034e+00          -0.137           0.071           0.988       2.739e-01         -1.2653
 315       1.161e+00      -1.026e+01       1.059e+00          -0.064           0.074           0.995       3.582e-01         -0.8708
 316       1.489e+00      -1.026e+01       1.074e+00          -0.028           0.074           0.997       4.230e-01         -0.6624
 317       1.861e+00      -1.026e+01       1.079e+00          -0.004           0.074           0.997       4.637e-01         -0.5449
 318       2.256e+00      -1.026e+01       1.077e+00           0.015           0.073           0.997       4.776e-01         -0.4766
 319       2.651e+00      -1.026e+01       1.067e+00           0.037           0.071           0.997       4.639e-01         -0.4355
 320       3.023e+00      -1.026e+01       1.048e+00           0.070           0.067           0.995       4.238e-01         -0.4101
 321       3.350e+00      -1.026e+01       1.017e+00           0.124           0.059           0.991       3.601e-01         -0.3817
 322       3.614e+00      -1.026e+01       9.747e-01           0.200           0.045           0.979       2.767e-01         -0.2929
 323       3.799e+00      -1.026e+01       9.312e-01           0.275           0.031           0.961       1.760e-01         -0.0785
 324       3.894e+00      -1.026e+01       9.025e-01           0.327           0.019           0.945       6.087e-02          0.0897
Strip 13
 325       4.130e+00      -9.038e+00       7.942e-01          -0.266          -0.033          -0.964       6.882e-02          0.3402
 326       4.026e+00      -9.038e+00       8.168e-01          -0.193          -0.048          -0.980       1.990e-01          0.4117
 327       3.824e+00      -9.038e+00       8.353e-01          -0.027          -0.080          -0.996       3.133e-01          0.4573
 328       3.536e+00      -9.038e+00       8.196e-01           0.115          -0.102          -0.988       4.162e-01          0.3989
 329       3.178e+00      -9.039e+00       7.576e-01           0.215          -0.114          -0.970       5.016e-01          0.2599
 330       2.771e+00      -9.041e+00       6.720e-01           0.196          -0.113          -0.974       5.477e-01          0.0434
 331       2.340e+00      -9.042e+00       6.140e-01           0.070          -0.104          -0.992       5.541e-01         -0.0590
 332       1.908e+00      -9.042e+00       5.948e-01           0.018          -0.101          -0.995       5.367e-01         -0.0110
 333       1.501e+00      -9.042e+00       5.948e-01          -0.019          -0.100          -0.995       4.894e-01          0.0498
 334       1.144e+00      -9.042e+00       6.086e-01          -0.061          -0.100          -0.993       4.144e-01          0.1246
 335       8.552e-01      -9.041e+00       6.369e-01          -0.144          -0.102          -0.984       3.173e-01          0.2701
 336       6.532e-01      -9.040e+00       6.817e-01          -0.323          -0.105          -0.941       2.072e-01          0.6064
 337       5.491e-01      -9.039e+00       7.495e-01          -0.839          -0.095          -0.535       1.236e-01          0.9105
 338       5.491e-01      -9.038e+00       8.317e-01          -0.841          -0.001           0.542       1.225e-01         -1.6805
 339       6.532e-01      -9.037e+00       8.974e-01          -0.303           0.061           0.951       2.050e-01         -2.2895
 340       8.552e-01      -9.036e+00       9.394e-01          -0.137           0.071           0.988       3.160e-01         -1.2488
 341       1.144e+00      -9.035e+00       9.673e-01          -0.064           0.074           0.995       4.132e-01         -0.8605
 342       1.501e+00      -9.035e+00       9.832e-01          -0.028           0.074           0.997       4.880e-01         -0.6551
 343       1.908e+00      -9.035e+00       9.896e-01          -0.004           0.074           0.997       5.349e-01         -0.5394
 344       2.340e+00      -9.035e+00       9.873e-01           0.015           0.073           0.997       5.509e-01         -0.4723
 345       2.771e+00      -9.035e+00       9.762e-01           0.037           0.071           0.997       5.352e-01         -0.4320
 346       3.178e+00      -9.036e+00       9.549e-01           0.070           0.067           0.995       4.889e-01         -0.4073
 347       3.536e+00      -9.036e+00       9.209e-01           0.124           0.059           0.991       4.153e-01         -0.3796
 348       3.824e+00      -9.037e+00       8.750e-01           0.200           0.045           0.979       3.192e-01         -0.2914
 349       4.026e+00      -9.038e+00       8.274e-01           0.275           0.031           0.961       2.030e-01         -0.0776
 350       4.130e+00      -9.038e+00       7.961e-01           0.327           0.019           0.945       7.020e-02          0.0903
Strip 14
 351       4.378e+00      -7.755e+00       6.822e-01          -0.266          -0.033          -0.964       7.838e-02          0.3401
 352       4.265e+00      -7.755e+00       7.068e-01          -0.193          -0.048          -0.980       2.266e-01          0.4114
 353       4.045e+00      -7.754e+00       7.270e-01          -0.027          -0.080          -0.996       3.569e-01          0.4566
 354       3.730e+00      -7.755e+00       7.099e-01           0.115          -0.102          -0.988       4.741e-01          0.3979
 355       3.341e+00      -7.756e+00       6.423e-01           0.215          -0.114          -0.970       5.714e-01          0.2582
 356       2.898e+00      -7.757e+00       5.491e-01           0.196          -0.113          -0.974       6.240e-01          0.0407
 357       2.428e+00      -7.758e+00       4.859e-01           0.070          -0.104          -0.992       6.312e-01         -0.0628
 358       1.957e+00      -7.758e+00       4.650e-01           0.018          -0.101          -0.995       6.114e-01         -0.0159
 359       1.515e+00      -7.758e+00       4.649e-01          -0.019          -0.100          -0.995       5.575e-01          0.0437
 360       1.125e+00      -7.758e+00       4.800e-01          -0.061          -0.100          -0.993       4.721e-01          0.1166
 361       8.107e-01      -7.757e+00       5.108e-01          -0.144          -0.102          -0.984       3.614e-01          0.2593
 362       5.906e-01      -7.757e+00       5.596e-01          -0.323          -0.105          -0.941       2.360e-01          0.5923
 363       4.772e-01      -7.756e+00       6.335e-01          -0.839          -0.095          -0.535       1.408e-01          0.9207
 364       4.772e-01      -7.754e+00       7.231e-01          -0.841          -0.001           0.542       1.395e-01         -1.6213
 365       5.906e-01      -7.753e+00       7.947e-01          -0.303           0.061           0.951       2.335e-01         -2.2473
 366       8.107e-01      -7.753e+00       8.405e-01          -0.137           0.071           0.988       3.599e-01         -1.2292
 367       1.125e+00      -7.752e+00       8.708e-01          -0.064           0.074           0.995       4.707e-01         -0.8482
 368       1.515e+00      -7.752e+00       8.882e-01          -0.028           0.074           0.997       5.559e-01         -0.6465
 369       1.957e+00      -7.752e+00       8.951e-01          -0.004           0.074           0.997       6.093e-01         -0.5328
 370       2.428e+00      -7.752e+00       8.926e-01           0.015           0.073           0.997       6.276e-01         -0.4669
 371       2.898e+00      -7.752e+00       8.805e-01           0.037           0.071           0.997       6.096e-01         -0.4277
 372       3.341e+00      -7.753e+00       8.573e-01           0.070           0.067           0.995       5.569e-01         -0.4038
 373       3.730e+00      -7.753e+00       8.202e-01           0.124           0.059           0.991       4.731e-01         -0.3769
 374       4.045e+00      -7.754e+00       7.703e-01           0.200           0.045           0.979       3.635e-01         -0.2897
 375       4.265e+00      -7.755e+00       7.184e-01           0.275           0.031           0.961       2.312e-01         -0.0767
 376       4.378e+00      -7.755e+00       6.843e-01           0.327           0.019           0.945       7.995e-02          0.0909
Strip 15
 377       4.636e+00      -6.419e+00       5.656e-01          -0.266          -0.033          -0.964       8.820e-02          0.3398
 378       4.513e+00      -6.418e+00       5.923e-01          -0.193          -0.048          -0.980       2.550e-01          0.4109
 379       4.274e+00      -6.418e+00       6.143e-01          -0.027          -0.080          -0.996       4.017e-01          0.4558
 380       3.933e+00      -6.418e+00       5.957e-01           0.115          -0.102          -0.988       5.336e-01          0.3967
 381       3.510e+00      -6.419e+00       5.223e-01           0.215          -0.114          -0.970       6.431e-01          0.2562
 382       3.029e+00      -6.420e+00       4.211e-01           0.196          -0.113          -0.974       7.023e-01          0.0375
 383       2.519e+00      -6.421e+00       3.525e-01           0.070          -0.104          -0.992       7.104e-01         -0.0673
 384       2.009e+00      -6.421e+00       3.298e-01           0.018          -0.101          -0.995       6.880e-01         -0.0215
 385       1.528e+00      -6.421e+00       3.297e-01          -0.019          -0.100          -0.995       6.274e-01          0.0367
 386       1.105e+00      -6.421e+00       3.461e-01          -0.061          -0.100          -0.993       5.313e-01          0.1075
 387       7.643e-01      -6.421e+00       3.795e-01          -0.144          -0.102          -0.984       4.068e-01          0.2469
 388       5.254e-01      -6.420e+00       4.325e-01          -0.323          -0.105          -0.941       2.656e-01          0.5759
 389       4.024e-01      -6.419e+00       5.128e-01          -0.839          -0.095          -0.536       1.584e-01          0.9315
 390       4.024e-01      -6.418e+00       6.100e-01          -0.841          -0.001           0.542       1.570e-01         -1.5548
 391       5.254e-01      -6.417e+00       6.877e-01          -0.303           0.061           0.951       2.627e-01         -2.1998
 392       7.643e-01      -6.417e+00       7.374e-01          -0.138           0.071           0.988       4.051e-01         -1.2069
 393       1.105e+00      -6.416e+00       7.704e-01          -0.064           0.074           0.995       5.298e-01         -0.8342
 394       1.528e+00      -6.416e+00       7.892e-01          -0.028           0.074           0.997       6.256e-01         -0.6364
 395       2.009e+00      -6.416e+00       7.967e-01          -0.004           0.074           0.997       6.857e-01         -0.5250
 396       2.519e+00      -6.416e+00       7.940e-01           0.015           0.073           0.997       7.063e-01         -0.4607
 397       3.029e+00      -6.416e+00       7.809e-01           0.037           0.071           0.997       6.861e-01         -0.4226
 398       3.510e+00      -6.417e+00       7.557e-01           0.070           0.067           0.995       6.267e-01         -0.3998
 399       3.933e+00      -6.417e+00       7.155e-01           0.124           0.059           0.991       5.324e-01         -0.3739
 400       4.274e+00      -6.418e+00       6.612e-01           0.200           0.045           0.979       4.091e-01         -0.2875
 401       4.513e+00      -6.418e+00       6.049e-01           0.275           0.031           0.961       2.601e-01         -0.0756
 402       4.636e+00      -6.419e+00       5.678e-01           0.327           0.019           0.945       8.996e-02          0.0914
Strip 16
 403       4.902e+00      -5.038e+00       4.452e-01          -0.266          -0.033          -0.964       9.809e-02          0.3396
 404       4.769e+00      -5.038e+00       4.740e-01          -0.193          -0.048          -0.980       2.837e-01          0.4104
 405       4.511e+00      -5.038e+00       4.978e-01          -0.027          -0.080          -0.996       4.468e-01          0.4549
 406       4.143e+00      -5.038e+00       4.777e-01           0.115          -0.102          -0.988       5.936e-01          0.3954
 407       3.685e+00      -5.039e+00       3.984e-01           0.215          -0.114          -0.970       7.154e-01          0.2541
 408       3.166e+00      -5.039e+00       2.889e-01           0.196          -0.113          -0.974       7.812e-01          0.0339
 409       2.614e+00      -5.040e+00       2.147e-01           0.070          -0.104          -0.992       7.902e-01         -0.0723
 410       2.062e+00      -5.040e+00       1.901e-01           0.018          -0.101          -0.995       7.653e-01         -0.0277
 411       1.542e+00      -5.040e+00       1.901e-01          -0.019          -0.100          -0.995       6.979e-01          0.0289
 412       1.085e+00      -5.040e+00       2.077e-01          -0.061          -0.100          -0.993       5.910e-01          0.0973
 413       7.164e-01      -5.040e+00       2.439e-01          -0.144          -0.102          -0.984       4.525e-01          0.2329
 414       4.581e-01      -5.039e+00       3.012e-01          -0.323          -0.105          -0.941       2.955e-01          0.5570
 415       3.251e-01      -5.039e+00       3.880e-01          -0.839          -0.095          -0.536       1.763e-01          0.9426
 416       3.251e-01      -5.038e+00       4.932e-01          -0.841          -0.001           0.541       1.746e-01         -1.4813
 417       4.581e-01      -5.037e+00       5.772e-01          -0.303           0.061           0.951       2.922e-01         -2.1470
 418       7.164e-01      -5.037e+00       6.310e-01          -0.138           0.071           0.988       4.506e-01         -1.1820
 419       1.085e+00      -5.037e+00       6.666e-01          -0.064           0.074           0.995       5.893e-01         -0.8185
 420       1.542e+00      -5.036e+00       6.870e-01          -0.028           0.074           0.997       6.959e-01         -0.6251
 421       2.062e+00      -5.036e+00       6.951e-01          -0.004           0.074           0.997       7.628e-01         -0.5163
 422       2.614e+00      -5.036e+00       6.922e-01           0.015           0.073           0.997       7.856e-01         -0.4536
 423       3.166e+00      -5.036e+00       6.780e-01           0.037           0.071           0.997       7.632e-01         -0.4169
 424       3.685e+00      -5.037e+00       6.507e-01           0.070           0.067           0.995       6.971e-01         -0.3951
 425       4.143e+00      -5.037e+00       6.072e-01           0.124           0.059           0.991       5.922e-01         -0.3703
 426       4.511e+00      -5.037e+00       5.486e-01           0.200           0.045           0.979       4.550e-01         -0.2851
 427       4.769e+00      -5.038e+00       4.876e-01           0.275           0.031           0.961       2.893e-01         -0.0743
 428       4.902e+00      -5.038e+00       4.476e-01           0.327           0.019           0.945       1.000e-01          0.0921
Strip 17
 429       5.176e+00      -3.624e+00       3.218e-01          -0.266          -0.033          -0.963       1.079e-01          0.3394
 430       5.032e+00      -3.623e+00       3.528e-01          -0.193          -0.048          -0.980       3.119e-01          0.4100
 431       4.754e+00      -3.623e+00       3.784e-01          -0.027          -0.080          -0.996       4.913e-01          0.4540
 432       4.357e+00      -3.623e+00       3.567e-01           0.115          -0.102          -0.988       6.528e-01          0.3940
 433       3.865e+00      -3.624e+00       2.713e-01           0.215          -0.114          -0.970       7.869e-01          0.2519
 434       3.305e+00      -3.624e+00       1.534e-01           0.196          -0.113          -0.974       8.592e-01          0.0304
 435       2.711e+00      -3.625e+00       7.345e-02           0.070          -0.104          -0.992       8.691e-01         -0.0773
 436       2.117e+00      -3.625e+00       4.700e-02           0.018          -0.101          -0.995       8.417e-01         -0.0342
 437       1.557e+00      -3.625e+00       4.694e-02          -0.019          -0.100          -0.995       7.675e-01          0.0204
 438       1.064e+00      -3.625e+00       6.597e-02          -0.061          -0.100          -0.993       6.499e-01          0.0858
 439       6.673e-01      -3.625e+00       1.049e-01          -0.144          -0.102          -0.984       4.976e-01          0.2171
 440       3.891e-01      -3.624e+00       1.667e-01          -0.323          -0.105          -0.941       3.250e-01          0.5354
 441       2.459e-01      -3.624e+00       2.602e-01          -0.839          -0.095          -0.536       1.939e-01          0.9538
 442       2.459e-01      -3.623e+00       3.735e-01          -0.841          -0.001           0.541       1.920e-01         -1.3998
 443       3.891e-01      -3.623e+00       4.640e-01          -0.303           0.061           0.951       3.214e-01         -2.0880
 444       6.673e-01      -3.623e+00       5.219e-01          -0.138           0.071           0.988       4.955e-01         -1.1544
 445       1.064e+00      -3.622e+00       5.603e-01          -0.064           0.074           0.995       6.481e-01         -0.8012
 446       1.557e+00      -3.622e+00       5.823e-01          -0.028           0.074           0.997       7.653e-01         -0.6128
 447       2.117e+00      -3.622e+00       5.910e-01          -0.004           0.074           0.997       8.389e-01         -0.5067
 448       2.711e+00      -3.622e+00       5.878e-01           0.015           0.073           0.997       8.640e-01         -0.4458
 449       3.305e+00      -3.622e+00       5.726e-01           0.037           0.071           0.997       8.393e-01         -0.4103
 450       3.865e+00      -3.622e+00       5.432e-01           0.070           0.067           0.995       7.666e-01         -0.3896
 451       4.357e+00      -3.623e+00       4.963e-01           0.124           0.059           0.991       6.512e-01         -0.3660
 452       4.754e+00      -3.623e+00       4.331e-01           0.200           0.045           0.979       5.003e-01         -0.2821
 453       5.032e+00      -3.623e+00       3.675e-01           0.275           0.031           0.961       3.181e-01         -0.0727
 454       5.176e+00      -3.624e+00       3.243e-01           0.327           0.019           0.945       1.100e-01          0.0930
Strip 18
 455       5.453e+00      -2.184e+00       1.962e-01          -0.266          -0.033          -0.963       1.173e-01          0.3391
 456       5.300e+00      -2.184e+00       2.295e-01          -0.193          -0.048          -0.980       3.392e-01          0.4093
 457       5.001e+00      -2.184e+00       2.570e-01          -0.027          -0.080          -0.996       5.344e-01          0.4530
 458       4.576e+00      -2.184e+00       2.337e-01           0.115          -0.102          -0.988       7.101e-01          0.3927
 459       4.047e+00      -2.184e+00       1.420e-01           0.215          -0.114          -0.970       8.559e-01          0.2502
 460       3.447e+00      -2.185e+00       1.552e-02           0.196          -0.113          -0.974       9.345e-01          0.0277
 461       2.809e+00      -2.185e+00      -7.026e-02           0.070          -0.104          -0.992       9.452e-01         -0.0813
 462       2.172e+00      -2.185e+00      -9.863e-02           0.018          -0.101          -0.995       9.155e-01         -0.0400
 463       1.572e+00      -2.185e+00      -9.870e-02          -0.019          -0.100          -0.995       8.348e-01          0.0119
 464       1.043e+00      -2.185e+00      -7.828e-02          -0.061          -0.100          -0.993       7.069e-01          0.0733
 465       6.173e-01      -2.185e+00      -3.649e-02          -0.144          -0.102          -0.984       5.412e-01          0.1986
 466       3.190e-01      -2.185e+00       2.977e-02          -0.323          -0.105          -0.941       3.535e-01          0.5092
 467       1.653e-01      -2.184e+00       1.301e-01          -0.839          -0.095          -0.536       2.109e-01          0.9653
 468       1.653e-01      -2.184e+00       2.516e-01          -0.841          -0.001           0.541       2.088e-01         -1.3056
 469       3.190e-01      -2.184e+00       3.488e-01          -0.303           0.061           0.951       3.495e-01         -2.0204
 470       6.173e-01      -2.183e+00       4.109e-01          -0.138           0.071           0.988       5.389e-01         -1.1235
 471       1.043e+00      -2.183e+00       4.521e-01          -0.064           0.074           0.995       7.049e-01         -0.7826
 472       1.572e+00      -2.183e+00       4.757e-01          -0.028           0.074           0.997       8.324e-01         -0.6000
 473       2.172e+00      -2.183e+00       4.850e-01          -0.004           0.074           0.997       9.124e-01         -0.4969
 474       2.809e+00      -2.183e+00       4.816e-01           0.015           0.073           0.997       9.397e-01         -0.4375
 475       3.447e+00      -2.183e+00       4.653e-01           0.037           0.071           0.997       9.128e-01         -0.4028
 476       4.047e+00      -2.183e+00       4.337e-01           0.070           0.067           0.995       8.338e-01         -0.3828
 477       4.576e+00      -2.184e+00       3.835e-01           0.124           0.059           0.991       7.083e-01         -0.3602
 478       5.001e+00      -2.184e+00       3.156e-01           0.200           0.045           0.979       5.441e-01         -0.2779
 479       5.300e+00      -2.184e+00       2.452e-01           0.275           0.031           0.961       3.460e-01         -0.0704
 480       5.453e+00      -2.184e+00       1.989e-01           0.327           0.019           0.945       1.196e-01          0.0942
Strip 19
 481       5.734e+00      -7.297e-01       6.929e-02          -0.266          -0.033          -0.963       1.262e-01          0.3360
 482       5.570e+00      -7.297e-01       1.049e-01          -0.193          -0.048          -0.980       3.649e-01          0.4062
 483       5.251e+00      -7.296e-01       1.343e-01          -0.027          -0.080          -0.996       5.749e-01          0.4505
 484       4.796e+00      -7.297e-01       1.094e-01           0.115          -0.102          -0.988       7.640e-01          0.3904
 485       4.232e+00      -7.297e-01       1.144e-02           0.215          -0.114          -0.970       9.208e-01          0.2500
 486       3.590e+00      -7.299e-01      -1.238e-01           0.196          -0.113          -0.974       1.005e+00          0.0299
 487       2.909e+00      -7.299e-01      -2.154e-01           0.070          -0.104          -0.992       1.017e+00         -0.0793
 488       2.228e+00      -7.300e-01      -2.458e-01           0.018          -0.101          -0.995       9.849e-01         -0.0412
 489       1.586e+00      -7.300e-01      -2.458e-01          -0.019          -0.100          -0.995       8.981e-01          0.0057
 490       1.022e+00      -7.300e-01      -2.240e-01          -0.061          -0.100          -0.993       7.605e-01          0.0597
 491       5.669e-01      -7.299e-01      -1.794e-01          -0.144          -0.102          -0.984       5.823e-01          0.1742
 492       2.480e-01      -7.298e-01      -1.086e-01          -0.323          -0.105          -0.941       3.803e-01          0.4706
 493       8.385e-02      -7.298e-01      -1.351e-03          -0.839          -0.095          -0.536       2.269e-01          0.9796
 494       8.385e-02      -7.296e-01       1.286e-01          -0.841          -0.001           0.541       2.246e-01         -1.1745
 495       2.480e-01      -7.295e-01       2.323e-01          -0.303           0.061           0.951       3.760e-01         -1.9284
 496       5.669e-01      -7.295e-01       2.987e-01          -0.138           0.071           0.988       5.798e-01         -1.0901
 497       1.022e+00      -7.294e-01       3.428e-01          -0.064           0.074           0.995       7.583e-01         -0.7673
 498       1.586e+00      -7.294e-01       3.680e-01          -0.028           0.074           0.997       8.955e-01         -0.5912
 499       2.228e+00      -7.294e-01       3.779e-01          -0.004           0.074           0.997       9.816e-01         -0.4896
 500       2.909e+00      -7.294e-01       3.743e-01           0.015           0.073           0.997       1.011e+00         -0.4295
 501       3.590e+00      -7.294e-01       3.569e-01           0.037           0.071           0.997       9.820e-01         -0.3932
 502       4.232e+00      -7.295e-01       3.231e-01           0.070           0.067           0.995       8.970e-01         -0.3720
 503       4.796e+00      -7.295e-01       2.694e-01           0.124           0.059           0.991       7.619e-01         -0.3486
 504       5.251e+00      -7.296e-01       1.969e-01           0.200           0.045           0.979       5.854e-01         -0.2687
 505       5.570e+00      -7.296e-01       1.217e-01           0.275           0.031           0.961       3.722e-01         -0.0660
 506       5.734e+00      -7.297e-01       7.223e-02           0.327           0.019           0.945       1.287e-01          0.0959
Strip 20
 507       5.734e+00       7.297e-01       6.929e-02          -0.266           0.033          -0.963       1.262e-01          0.3360
 508       5.570e+00       7.297e-01       1.049e-01          -0.193           0.048          -0.980       3.649e-01          0.4062
 509       5.251e+00       7.296e-01       1.343e-01          -0.027           0.080          -0.996       5.749e-01          0.4505
 510       4.796e+00       7.297e-01       1.094e-01           0.115           0.102          -0.988       7.640e-01          0.3904
 511       4.232e+00       7.297e-01       1.144e-02           0.215           0.114          -0.970       9.208e-01          0.2500
 512       3.590e+00       7.299e-01      -1.238e-01           0.196           0.113          -0.974       1.005e+00          0.0299
 513       2.909e+00       7.299e-01      -2.154e-01           0.070           0.104          -0.992       1.017e+00         -0.0793
 514       2.228e+00       7.300e-01      -2.458e-01           0.018           0.101          -0.995       9.849e-01         -0.0412
 515       1.586e+00       7.300e-01      -2.458e-01          -0.019           0.100          -0.995       8.981e-01          0.0057
 516       1.022e+00       7.300e-01      -2.240e-01          -0.061           0.100          -0.993       7.605e-01          0.0597
 517       5.669e-01       7.299e-01      -1.794e-01          -0.144           0.102          -0.984       5.823e-01          0.1742
 518       2.480e-01       7.298e-01      -1.086e-01          -0.323           0.105          -0.941       3.803e-01          0.4706
 519       8.385e-02       7.298e-01      -1.351e-03          -0.839           0.095          -0.536       2.269e-01          0.9796
 520       8.385e-02       7.296e-01       1.286e-01          -0.841           0.001           0.541       2.246e-01         -1.1745
 521       2.480e-01       7.295e-01       2.323e-01          -0.303          -0.061           0.951       3.760e-01         -1.9284
 522       5.669e-01       7.295e-01       2.987e-01          -0.138          -0.071           0.988       5.798e-01         -1.0901
 523       1.022e+00       7.294e-01       3.428e-01          -0.064          -0.074           0.995       7.583e-01         -0.7673
 524       1.586e+00       7.294e-01       3.680e-01          -0.028          -0.074           0.997       8.955e-01         -0.5912
 525       2.228e+00       7.294e-01       3.779e-01          -0.004          -0.074           0.997       9.816e-01         -0.4896
 526       2.909e+00       7.294e-01       3.743e-01           0.015          -0.073           0.997       1.011e+00         -0.4295
 527       3.590e+00       7.294e-01       3.569e-01           0.037          -0.071           0.997       9.820e-01         -0.3932
 528       4.232e+00       7.295e-01       3.231e-01           0.070          -0.067           0.995       8.970e-01         -0.3720
 529       4.796e+00       7.295e-01       2.694e-01           0.124          -0.059           0.991       7.619e-01         -0.3486
 530       5.251e+00       7.296e-01       1.969e-01           0.200          -0.045           0.979       5.854e-01         -0.2687
 531       5.570e+00       7.296e-01       1.217e-01           0.275          -0.031           0.961       3.722e-01         -0.0660
 532       5.734e+00       7.297e-01       7.223e-02           0.327          -0.019           0.945       1.287e-01          0.0959
Strip 21
 533       5.453e+00       2.184e+00       1.962e-01          -0.266           0.033          -0.963       1.173e-01          0.3391
 534       5.300e+00       2.184e+00       2.295e-01          -0.193           0.048          -0.980       3.392e-01          0.4093
 535       5.001e+00       2.184e+00       2.570e-01          -0.027           0.080          -0.996       5.344e-01          0.4530
 536       4.576e+00       2.184e+00       2.337e-01           0.115           0.102          -0.988       7.101e-01          0.3927
 537       4.047e+00       2.184e+00       1.420e-01           0.215           0.114          -0.970       8.559e-01          0.2502
 538       3.447e+00       2.185e+00       1.552e-02           0.196           0.113          -0.974       9.345e-01          0.0277
 539       2.809e+00       2.185e+00      -7.026e-02           0.070           0.104          -0.992       9.452e-01         -0.0813
 540       2.172e+00       2.185e+00      -9.863e-02           0.018           0.101          -0.995       9.155e-01         -0.0400
 541       1.572e+00       2.185e+00      -9.870e-02          -0.019           0.100          -0.995       8.348e-01          0.0119
 542       1.043e+00       2.185e+00      -7.828e-02          -0.061           0.100          -0.993       7.069e-01          0.0733
 543       6.173e-01       2.185e+00      -3.649e-02          -0.144           0.102          -0.984       5.412e-01          0.1986
 544       3.190e-01       2.185e+00       2.977e-02          -0.323           0.105          -0.941       3.535e-01          0.5092
 545       1.653e-01       2.184e+00       1.301e-01          -0.839           0.095          -0.536       2.109e-01          0.9653
 546       1.653e-01       2.184e+00       2.516e-01          -0.841           0.001           0.541       2.088e-01         -1.3056
 547       3.190e-01       2.184e+00       3.488e-01          -0.303          -0.061           0.951       3.495e-01         -2.0204
 548       6.173e-01       2.183e+00       4.109e-01          -0.138          -0.071           0.988       5.389e-01         -1.1235
 549       1.043e+00       2.183e+00       4.521e-01          -0.064          -0.074           0.995       7.049e-01         -0.7826
 550       1.572e+00       2.183e+00       4.757e-01          -0.028          -0.074           0.997       8.324e-01         -0.6000
 551       2.172e+00       2.183e+00       4.850e-01          -0.004          -0.074           0.997       9.124e-01         -0.4969
 552       2.809e+00       2.183e+00       4.816e-01           0.015          -0.073           0.997       9.397e-01         -0.4375
 553       3.447e+00       2.183e+00       4.653e-01           0.037          -0.071           0.997       9.128e-01         -0.4028
 554       4.047e+00       2.183e+00       4.337e-01           0.070          -0.067           0.995       8.338e-01         -0.3828
 555       4.576e+00       2.184e+00       3.835e-01           0.124          -0.059           0.991       7.083e-01         -0.3602
 556       5.001e+00       2.184e+00       3.156e-01           0.200          -0.045           0.979       5.441e-01         -0.2779
 557       5.300e+00       2.184e+00       2.452e-01           0.275          -0.031           0.961       3.460e-01         -0.0704
 558       5.453e+00       2.184e+00       1.989e-01           0.327          -0.019           0.945       1.196e-01          0.0942
Strip 22
 559       5.176e+00       3.624e+00       3.218e-01          -0.266           0.033          -0.963       1.079e-01          0.3394
 560       5.032e+00       3.623e+00       3.528e-01          -0.193           0.048          -0.980       3.119e-01          0.4100
 561       4.754e+00       3.623e+00       3.784e-01          -0.027           0.080          -0.996       4.913e-01          0.4540
 562       4.357e+00       3.623e+00       3.567e-01           0.115           0.102          -0.988       6.528e-01          0.3940
 563       3.865e+00       3.624e+00       2.713e-01           0.215           0.114          -0.970       7.869e-01          0.2519
 564       3.305e+00       3.624e+00       1.534e-01           0.196           0.113          -0.974       8.592e-01          0.0304
 565       2.711e+00       3.625e+00       7.345e-02           0.070           0.104          -0.992       8.691e-01         -0.0773
 566       2.117e+00       3.625e+00       4.700e-02           0.018           0.101          -0.995       8.417e-01         -0.0342
 567       1.557e+00       3.625e+00       4.694e-02          -0.019           0.100          -0.995       7.675e-01          0.0204
 568       1.064e+00       3.625e+00       6.597e-02          -0.061           0.100          -0.993       6.499e-01          0.0858
[...]
 852       1.645e+00       1.587e+01       1.285e+00           0.018           0.101          -0.995       1.442e-01         -0.0267
 853       1.432e+00       1.587e+01       1.285e+00          -0.019           0.100          -0.995       1.315e-01          0.0346
 854       1.244e+00       1.587e+01       1.292e+00          -0.061           0.100          -0.993       1.113e-01          0.1100
 855       1.092e+00       1.587e+01       1.307e+00          -0.145           0.102          -0.984       8.521e-02          0.2562
 856       9.859e-01       1.587e+01       1.331e+00          -0.323           0.105          -0.941       5.562e-02          0.5938
 857       9.312e-01       1.586e+01       1.366e+00          -0.840           0.095          -0.534       3.316e-02          0.9158
 858       9.312e-01       1.586e+01       1.409e+00          -0.840           0.001           0.543       3.293e-02         -1.6357
 859       9.859e-01       1.586e+01       1.444e+00          -0.303          -0.061           0.951       5.509e-02         -2.2495
 860       1.092e+00       1.586e+01       1.466e+00          -0.137          -0.071           0.988       8.489e-02         -1.2235
 861       1.244e+00       1.586e+01       1.480e+00          -0.064          -0.074           0.995       1.110e-01         -0.8387
 862       1.432e+00       1.586e+01       1.489e+00          -0.028          -0.074           0.997       1.311e-01         -0.6349
 863       1.645e+00       1.586e+01       1.492e+00          -0.004          -0.074           0.997       1.437e-01         -0.5209
 864       1.872e+00       1.586e+01       1.491e+00           0.015          -0.073           0.997       1.480e-01         -0.4561
 865       2.099e+00       1.586e+01       1.485e+00           0.037          -0.071           0.997       1.438e-01         -0.4189
 866       2.312e+00       1.586e+01       1.474e+00           0.070          -0.067           0.995       1.314e-01         -0.3971
 867       2.500e+00       1.586e+01       1.456e+00           0.123          -0.059           0.991       1.117e-01         -0.3728
 868       2.652e+00       1.586e+01       1.432e+00           0.200          -0.046           0.979       8.585e-02         -0.2892
 869       2.758e+00       1.586e+01       1.407e+00           0.274          -0.031           0.961       5.463e-02         -0.0812
 870       2.813e+00       1.586e+01       1.391e+00           0.326          -0.019           0.945       1.890e-02          0.0829
Strip 34
 871       2.700e+00       1.645e+01       1.441e+00          -0.265           0.033          -0.964       1.415e-02          0.3320
 872       2.649e+00       1.645e+01       1.452e+00          -0.193           0.048          -0.980       4.088e-02          0.4042
 873       2.551e+00       1.645e+01       1.461e+00          -0.027           0.080          -0.996       6.427e-02          0.4503
 874       2.412e+00       1.645e+01       1.453e+00           0.115           0.102          -0.988       8.528e-02          0.3902
 875       2.238e+00       1.645e+01       1.423e+00           0.215           0.114          -0.970       1.027e-01          0.2448
 876       2.041e+00       1.645e+01       1.382e+00           0.196           0.113          -0.974       1.122e-01          0.0169
 877       1.832e+00       1.646e+01       1.354e+00           0.070           0.104          -0.992       1.136e-01         -0.0937
 878       1.623e+00       1.646e+01       1.345e+00           0.018           0.101          -0.995       1.101e-01         -0.0480
 879       1.426e+00       1.646e+01       1.345e+00          -0.019           0.100          -0.995       1.004e-01          0.0112
 880       1.252e+00       1.646e+01       1.351e+00          -0.061           0.100          -0.993       8.498e-02          0.0832
 881       1.112e+00       1.645e+01       1.365e+00          -0.145           0.102          -0.984       6.505e-02          0.2235
 882       1.014e+00       1.645e+01       1.386e+00          -0.323           0.105          -0.941       4.246e-02          0.5536
 883       9.641e-01       1.645e+01       1.419e+00          -0.840           0.095          -0.534       2.531e-02          0.9392
 884       9.641e-01       1.645e+01       1.459e+00          -0.839           0.001           0.543       2.514e-02         -1.4811
 885       1.014e+00       1.645e+01       1.491e+00          -0.303          -0.061           0.951       4.206e-02         -2.1324
 886       1.112e+00       1.644e+01       1.511e+00          -0.137          -0.071           0.988       6.481e-02         -1.1627
 887       1.252e+00       1.644e+01       1.524e+00          -0.064          -0.074           0.995       8.475e-02         -0.7953
 888       1.426e+00       1.644e+01       1.532e+00          -0.028          -0.074           0.997       1.001e-01         -0.5999
 889       1.623e+00       1.644e+01       1.535e+00          -0.004          -0.074           0.997       1.097e-01         -0.4913
 890       1.832e+00       1.644e+01       1.534e+00           0.015          -0.073           0.997       1.130e-01         -0.4313
 891       2.041e+00       1.644e+01       1.529e+00           0.036          -0.071           0.997       1.098e-01         -0.3989
 892       2.238e+00       1.644e+01       1.518e+00           0.070          -0.067           0.995       1.003e-01         -0.3818
 893       2.412e+00       1.645e+01       1.502e+00           0.123          -0.059           0.991       8.525e-02         -0.3621
 894       2.551e+00       1.645e+01       1.480e+00           0.200          -0.046           0.979       6.556e-02         -0.2840
 895       2.649e+00       1.645e+01       1.457e+00           0.274          -0.031           0.961       4.172e-02         -0.0823
 896       2.700e+00       1.645e+01       1.442e+00           0.326          -0.019           0.945       1.444e-02          0.0780
Strip 35
 897       2.608e+00       1.692e+01       1.482e+00          -0.265           0.033          -0.964       1.035e-02          0.3224
 898       2.561e+00       1.692e+01       1.492e+00          -0.192           0.048          -0.980       2.991e-02          0.3948
 899       2.470e+00       1.692e+01       1.501e+00          -0.027           0.080          -0.996       4.702e-02          0.4408
 900       2.340e+00       1.692e+01       1.494e+00           0.115           0.102          -0.988       6.238e-02          0.3788
 901       2.178e+00       1.692e+01       1.466e+00           0.215           0.114          -0.970       7.514e-02          0.2279
 902       1.994e+00       1.693e+01       1.427e+00           0.196           0.113          -0.974       8.209e-02         -0.0083
 903       1.799e+00       1.693e+01       1.401e+00           0.070           0.104          -0.992       8.311e-02         -0.1235
 904       1.604e+00       1.693e+01       1.393e+00           0.018           0.101          -0.995       8.052e-02         -0.0786
 905       1.421e+00       1.693e+01       1.393e+00          -0.019           0.100          -0.995       7.343e-02         -0.0222
 906       1.259e+00       1.693e+01       1.399e+00          -0.061           0.100          -0.993       6.217e-02          0.0440
 907       1.129e+00       1.693e+01       1.411e+00          -0.145           0.102          -0.984       4.759e-02          0.1748
 908       1.038e+00       1.693e+01       1.432e+00          -0.323           0.105          -0.941       3.106e-02          0.4919
 909       9.906e-01       1.692e+01       1.462e+00          -0.840           0.095          -0.533       1.852e-02          0.9645
 910       9.906e-01       1.692e+01       1.499e+00          -0.839           0.001           0.544       1.840e-02         -1.2656
 911       1.038e+00       1.692e+01       1.529e+00          -0.303          -0.061           0.951       3.077e-02         -1.9642
 912       1.129e+00       1.692e+01       1.547e+00          -0.137          -0.071           0.988       4.742e-02         -1.0721
 913       1.259e+00       1.692e+01       1.560e+00          -0.064          -0.074           0.995       6.200e-02         -0.7283
 914       1.421e+00       1.692e+01       1.567e+00          -0.028          -0.074           0.997       7.321e-02         -0.5444
 915       1.604e+00       1.692e+01       1.570e+00          -0.004          -0.074           0.997       8.025e-02         -0.4438
 916       1.799e+00       1.692e+01       1.569e+00           0.015          -0.073           0.997       8.266e-02         -0.3914
 917       1.994e+00       1.692e+01       1.564e+00           0.036          -0.071           0.997       8.031e-02         -0.3670
 918       2.178e+00       1.692e+01       1.554e+00           0.070          -0.067           0.995       7.338e-02         -0.3580
 919       2.340e+00       1.692e+01       1.539e+00           0.123          -0.059           0.991       6.238e-02         -0.3467
 920       2.470e+00       1.692e+01       1.518e+00           0.200          -0.046           0.979       4.797e-02         -0.2783
 921       2.561e+00       1.692e+01       1.497e+00           0.274          -0.031           0.961       3.053e-02         -0.0879
 922       2.608e+00       1.692e+01       1.483e+00           0.326          -0.019           0.945       1.057e-02          0.0658
Strip 36
 923       2.539e+00       1.728e+01       1.513e+00          -0.265           0.033          -0.964       7.038e-03          0.2935
 924       2.495e+00       1.728e+01       1.523e+00          -0.192           0.048          -0.980       2.033e-02          0.3675
 925       2.408e+00       1.728e+01       1.531e+00          -0.027           0.080          -0.996       3.195e-02          0.4143
 926       2.285e+00       1.728e+01       1.524e+00           0.115           0.102          -0.988       4.238e-02          0.3493
 927       2.133e+00       1.728e+01       1.498e+00           0.216           0.114          -0.970       5.105e-02          0.1918
 928       1.959e+00       1.729e+01       1.462e+00           0.196           0.113          -0.974       5.578e-02         -0.0496
 929       1.775e+00       1.729e+01       1.437e+00           0.070           0.104          -0.992       5.648e-02         -0.1621
 930       1.591e+00       1.729e+01       1.429e+00           0.018           0.101          -0.995       5.471e-02         -0.1140
 931       1.417e+00       1.729e+01       1.429e+00          -0.019           0.100          -0.995       4.990e-02         -0.0622
 932       1.264e+00       1.729e+01       1.435e+00          -0.061           0.100          -0.993       4.225e-02         -0.0078
 933       1.141e+00       1.729e+01       1.447e+00          -0.145           0.102          -0.984       3.234e-02          0.1055
 934       1.055e+00       1.729e+01       1.466e+00          -0.323           0.105          -0.941       2.110e-02          0.3996
 935       1.011e+00       1.728e+01       1.494e+00          -0.841           0.095          -0.533       1.258e-02          0.9813
 936       1.011e+00       1.728e+01       1.529e+00          -0.839           0.001           0.544       1.250e-02         -0.9930
 937       1.055e+00       1.728e+01       1.557e+00          -0.303          -0.061           0.951       2.091e-02         -1.7417
 938       1.141e+00       1.728e+01       1.575e+00          -0.137          -0.071           0.988       3.222e-02         -0.9453
 939       1.264e+00       1.728e+01       1.587e+00          -0.064          -0.074           0.995       4.213e-02         -0.6308
 940       1.417e+00       1.728e+01       1.594e+00          -0.028          -0.074           0.997       4.975e-02         -0.4631
 941       1.591e+00       1.727e+01       1.596e+00          -0.004          -0.074           0.997       5.453e-02         -0.3754
 942       1.775e+00       1.727e+01       1.595e+00           0.015          -0.073           0.997       5.617e-02         -0.3352
 943       1.959e+00       1.728e+01       1.591e+00           0.036          -0.071           0.997       5.457e-02         -0.3234
 944       2.133e+00       1.728e+01       1.582e+00           0.070          -0.067           0.995       4.987e-02         -0.3275
 945       2.285e+00       1.728e+01       1.567e+00           0.123          -0.059           0.991       4.239e-02         -0.3305
 946       2.408e+00       1.728e+01       1.548e+00           0.200          -0.046           0.979       3.261e-02         -0.2806
 947       2.495e+00       1.728e+01       1.527e+00           0.274          -0.031           0.961       2.076e-02         -0.1132
 948       2.539e+00       1.728e+01       1.514e+00           0.326          -0.019           0.945       7.183e-03          0.0269
Strip 37
 949       2.493e+00       1.752e+01       1.534e+00          -0.265           0.033          -0.964       4.077e-03          0.1620
 950       2.450e+00       1.752e+01       1.544e+00          -0.192           0.048          -0.980       1.178e-02          0.2418
 951       2.367e+00       1.752e+01       1.551e+00          -0.027           0.080          -0.996       1.851e-02          0.2967
 952       2.249e+00       1.752e+01       1.545e+00           0.115           0.102          -0.988       2.455e-02          0.2451
 953       2.102e+00       1.752e+01       1.519e+00           0.216           0.114          -0.970       2.956e-02          0.1064
 954       1.935e+00       1.753e+01       1.485e+00           0.196           0.113          -0.974       3.230e-02         -0.1081
 955       1.758e+00       1.753e+01       1.461e+00           0.070           0.104          -0.992       3.271e-02         -0.1953
 956       1.581e+00       1.753e+01       1.453e+00           0.018           0.101          -0.995       3.169e-02         -0.1408
 957       1.415e+00       1.753e+01       1.453e+00          -0.019           0.100          -0.995       2.890e-02         -0.0994
 958       1.268e+00       1.753e+01       1.459e+00          -0.061           0.100          -0.993       2.447e-02         -0.0674
 959       1.150e+00       1.753e+01       1.470e+00          -0.145           0.102          -0.984       1.873e-02          0.0083
 960       1.067e+00       1.753e+01       1.488e+00          -0.323           0.105          -0.940       1.222e-02          0.2529
 961       1.024e+00       1.752e+01       1.516e+00          -0.841           0.095          -0.533       7.285e-03          0.9600
 962       1.024e+00       1.752e+01       1.550e+00          -0.839           0.001           0.544       7.242e-03         -0.6770
 963       1.067e+00       1.752e+01       1.576e+00          -0.303          -0.061           0.951       1.211e-02         -1.4589
 964       1.150e+00       1.752e+01       1.594e+00          -0.137          -0.071           0.988       1.866e-02         -0.7692
 965       1.268e+00       1.752e+01       1.605e+00          -0.064          -0.074           0.995       2.440e-02         -0.4981
 966       1.415e+00       1.752e+01       1.611e+00          -0.028          -0.074           0.997       2.881e-02         -0.3636
 967       1.581e+00       1.751e+01       1.614e+00          -0.004          -0.074           0.997       3.158e-02         -0.3001
 968       1.758e+00       1.752e+01       1.613e+00           0.015          -0.073           0.997       3.253e-02         -0.2770
 969       1.935e+00       1.752e+01       1.609e+00           0.036          -0.071           0.997       3.161e-02         -0.2840
 970       2.102e+00       1.752e+01       1.600e+00           0.070          -0.067           0.995       2.888e-02         -0.3162
 971       2.249e+00       1.752e+01       1.586e+00           0.123          -0.059           0.991       2.455e-02         -0.3581
 972       2.367e+00       1.752e+01       1.567e+00           0.200          -0.046           0.979       1.889e-02         -0.3606
 973       2.450e+00       1.752e+01       1.548e+00           0.274          -0.031           0.961       1.202e-02         -0.2620
 974       2.493e+00       1.752e+01       1.535e+00           0.326          -0.019           0.945       4.161e-03         -0.1627
Strip 38
 975       2.469e+00       1.764e+01       1.545e+00          -0.265           0.033          -0.964       1.334e-03          0.0036
 976       2.428e+00       1.764e+01       1.554e+00          -0.192           0.048          -0.980       3.854e-03          0.0584
 977       2.346e+00       1.764e+01       1.561e+00          -0.027           0.080          -0.996       6.056e-03          0.0730
 978       2.231e+00       1.764e+01       1.555e+00           0.115           0.102          -0.988       8.033e-03          0.0212
 979       2.087e+00       1.764e+01       1.530e+00           0.216           0.114          -0.970       9.674e-03         -0.0452
 980       1.924e+00       1.765e+01       1.496e+00           0.196           0.113          -0.974       1.057e-02         -0.1641
 981       1.750e+00       1.765e+01       1.473e+00           0.070           0.104          -0.992       1.070e-02         -0.1978
 982       1.577e+00       1.765e+01       1.465e+00           0.018           0.101          -0.995       1.037e-02         -0.1421
 983       1.413e+00       1.765e+01       1.465e+00          -0.019           0.100          -0.995       9.457e-03         -0.1085
 984       1.270e+00       1.765e+01       1.471e+00          -0.061           0.100          -0.993       8.007e-03         -0.0850
 985       1.154e+00       1.765e+01       1.482e+00          -0.145           0.102          -0.984       6.129e-03         -0.0357
 986       1.073e+00       1.765e+01       1.500e+00          -0.323           0.105          -0.940       3.999e-03          0.1326
 987       1.031e+00       1.764e+01       1.527e+00          -0.841           0.095          -0.533       2.384e-03          0.9041
 988       1.031e+00       1.764e+01       1.560e+00          -0.839           0.001           0.544       2.370e-03         -0.3313
 989       1.073e+00       1.764e+01       1.586e+00          -0.303          -0.061           0.951       3.964e-03         -1.1014
 990       1.154e+00       1.764e+01       1.603e+00          -0.137          -0.071           0.988       6.107e-03         -0.5636
 991       1.270e+00       1.764e+01       1.614e+00          -0.064          -0.074           0.995       7.986e-03         -0.3715
 992       1.413e+00       1.764e+01       1.620e+00          -0.028          -0.074           0.997       9.430e-03         -0.2841
 993       1.577e+00       1.764e+01       1.623e+00          -0.004          -0.074           0.997       1.034e-02         -0.2440
 994       1.750e+00       1.764e+01       1.622e+00           0.015          -0.073           0.997       1.065e-02         -0.2270
 995       1.924e+00       1.764e+01       1.618e+00           0.036          -0.071           0.997       1.034e-02         -0.2316
 996       2.087e+00       1.764e+01       1.609e+00           0.070          -0.067           0.995       9.452e-03         -0.2718
 997       2.231e+00       1.764e+01       1.595e+00           0.123          -0.059           0.991       8.036e-03         -0.3489
 998       2.346e+00       1.764e+01       1.577e+00           0.200          -0.046           0.979       6.181e-03         -0.4141
 999       2.428e+00       1.764e+01       1.558e+00           0.274          -0.031           0.961       3.935e-03         -0.4059
1000       2.469e+00       1.764e+01       1.546e+00           0.326          -0.019           0.945       1.362e-03         -0.3615










