xflr5 v6.61

Plane Name
T1-10.0 m/s-Panel-Inviscid
QInf  =   10.000000 m/s
Alpha =   10.000000
Beta  =    0.000°
Phi   =    0.000°
Ctrl  =    0.000
CL    =    1.119824
Cy    =   -0.000000
Cd    =    0.039947     ICd   =    0.039947     PCd   =    0.000000
Cl   = -1.07209e-14
Cm   =    -1.61369
ICn   =    0.000000     PCn   =    0.000000 
XCP   =    5.872160     YCP   =    0.000000     ZCP   =    0.785704  
XNP   =    0.000000
Bending = 30448.206130

Main Wing
  y-span        Chord      Ai         Cl        PCd          ICd        CmGeom    CmAirf@chord/4    XTrtop    XTrBot      XCP       BM
  -17.7097     1.4597    -9.060    0.448366    0.000000    0.071495   -3.391058    0.011226     0.0000    0.0000    0.2260    0.0000
  -17.5887     1.4902    -6.734    0.730350    0.000000    0.086218   -5.378521   -0.030475     0.0000    0.0000    0.2902    0.3015
  -17.3476     1.5509    -5.052    0.960403    0.000000    0.084862   -6.711969   -0.046280     0.0000    0.0000    0.2962    3.8940
  -16.9880     1.6414    -3.844    1.118916    0.000000    0.075104   -7.315376   -0.064625     0.0000    0.0000    0.3054   19.3820
  -16.5123     1.7612    -2.959    1.215111    0.000000    0.062710   -7.269681   -0.078703     0.0000    0.0000    0.3122   62.8397
  -15.9238     1.9093    -2.341    1.265151    0.000000    0.051604   -6.796036   -0.087369     0.0000    0.0000    0.3163   158.7882
  -15.2266     2.0848    -1.954    1.284806    0.000000    0.043708   -6.103572   -0.092164     0.0000    0.0000    0.3189   340.6389
  -14.4253     2.2865    -1.743    1.285463    0.000000    0.038992   -5.335279   -0.094751     0.0000    0.0000    0.3208   650.8590
  -13.5255     2.5131    -1.656    1.274187    0.000000    0.036681   -4.574189   -0.096168     0.0000    0.0000    0.3225   1140.8484
  -12.5334     2.7628    -1.649    1.255059    0.000000    0.035965   -3.863133   -0.096953     0.0000    0.0000    0.3242   1870.3690
  -11.4556     3.0342    -1.698    1.230434    0.000000    0.036291   -3.221012   -0.097438     0.0000    0.0000    0.3260   2906.3621
  -10.2995     3.3252    -1.782    1.201455    0.000000    0.037176   -2.653114   -0.097752     0.0000    0.0000    0.3281   4321.0607
   -9.0731     3.6339    -1.890    1.168684    0.000000    0.038329   -2.157864   -0.097998     0.0000    0.0000    0.3305   6189.3029
   -7.7847     3.9583    -2.011    1.132209    0.000000    0.039492   -1.730248   -0.098274     0.0000    0.0000    0.3334   8585.1009
   -6.4431     4.2960    -2.137    1.091758    0.000000    0.040418   -1.364046   -0.098710     0.0000    0.0000    0.3369   11577.5170
   -5.0575     4.6448    -2.254    1.046697    0.000000    0.040780   -1.052984   -0.099565     0.0000    0.0000    0.3414   15225.9756
   -3.6374     5.0023    -2.336    0.995921    0.000000    0.040055   -0.791637   -0.101448     0.0000    0.0000    0.3479   19575.1654
   -2.1924     5.3661    -2.324    0.937275    0.000000    0.037082   -0.576360   -0.105913     0.0000    0.0000    0.3586   24649.6769
   -0.7325     5.7336    -1.985    0.859985    0.000000    0.026790   -0.407563   -0.118175     0.0000    0.0000    0.3812   30448.2061
    0.7325     5.7336    -1.985    0.859985    0.000000    0.026790   -0.407563   -0.118175     0.0000    0.0000    0.3812   30448.2061
    2.1924     5.3661    -2.324    0.937275    0.000000    0.037082   -0.576360   -0.105913     0.0000    0.0000    0.3586   24649.6769
    3.6374     5.0023    -2.336    0.995921    0.000000    0.040055   -0.791637   -0.101448     0.0000    0.0000    0.3479   19575.1654
    5.0575     4.6448    -2.254    1.046697    0.000000    0.040780   -1.052984   -0.099565     0.0000    0.0000    0.3414   15225.9756
    6.4431     4.2960    -2.137    1.091758    0.000000    0.040418   -1.364046   -0.098710     0.0000    0.0000    0.3369   11577.5170
    7.7847     3.9583    -2.011    1.132209    0.000000    0.039492   -1.730248   -0.098274     0.0000    0.0000    0.3334   8585.1009
    9.0731     3.6339    -1.890    1.168684    0.000000    0.038329   -2.157864   -0.097998     0.0000    0.0000    0.3305   6189.3029
   10.2995     3.3252    -1.782    1.201455    0.000000    0.037176   -2.653114   -0.097752     0.0000    0.0000    0.3281   4321.0607
   11.4556     3.0342    -1.698    1.230434    0.000000    0.036291   -3.221012   -0.097438     0.0000    0.0000    0.3260   2906.3621
   12.5334     2.7628    -1.649    1.255059    0.000000    0.035965   -3.863133   -0.096953     0.0000    0.0000    0.3242   1870.3690
   13.5255     2.5131    -1.656    1.274187    0.000000    0.036681   -4.574189   -0.096168     0.0000    0.0000    0.3225   1140.8484
   14.4253     2.2865    -1.743    1.285463    0.000000    0.038992   -5.335279   -0.094751     0.0000    0.0000    0.3208   650.8590
   15.2266     2.0848    -1.954    1.284806    0.000000    0.043708   -6.103572   -0.092164     0.0000    0.0000    0.3189   340.6389
   15.9238     1.9093    -2.341    1.265151    0.000000    0.051604   -6.796036   -0.087369     0.0000    0.0000    0.3163   158.7882
   16.5123     1.7612    -2.959    1.215111    0.000000    0.062710   -7.269681   -0.078703     0.0000    0.0000    0.3122   62.8397
   16.9880     1.6414    -3.844    1.118916    0.000000    0.075104   -7.315376   -0.064625     0.0000    0.0000    0.3054   19.3820
   17.3476     1.5509    -5.052    0.960403    0.000000    0.084862   -6.711969   -0.046280     0.0000    0.0000    0.2962    3.8940
   17.5887     1.4902    -6.734    0.730350    0.000000    0.086218   -5.378521   -0.030475     0.0000    0.0000    0.2902    0.3015
   17.7097     1.4597    -9.060    0.448366    0.000000    0.071495   -3.391058    0.011226     0.0000    0.0000    0.2260    0.0000


Main Wing Cp Coefficients
 Panel     CtrlPt.x        CtrlPt.y        CtrlPt.z       Nx      Ny       Nz        Area       Cp
Main WingCp Coefficients
Strip 1
  13       1.161e+01      -1.764e+01       1.545e+00          -0.264          -0.169          -0.950       1.338e-03         -0.8421
  14       1.156e+01      -1.764e+01       1.554e+00          -0.192          -0.147          -0.970       3.859e-03         -0.9162
  15       1.148e+01      -1.764e+01       1.561e+00          -0.027          -0.093          -0.995       6.056e-03         -0.8713
  16       1.137e+01      -1.764e+01       1.555e+00           0.115          -0.043          -0.992       8.039e-03         -0.6970
  17       1.122e+01      -1.764e+01       1.530e+00           0.215          -0.004          -0.977       9.702e-03         -0.4954
  18       1.106e+01      -1.765e+01       1.496e+00           0.196          -0.012          -0.981       1.059e-02         -0.3756
  19       1.089e+01      -1.765e+01       1.473e+00           0.070          -0.068          -0.995       1.070e-02         -0.3061
  20       1.071e+01      -1.765e+01       1.465e+00           0.018          -0.092          -0.996       1.037e-02         -0.2337
  21       1.055e+01      -1.765e+01       1.465e+00          -0.019          -0.110          -0.994       9.459e-03         -0.1676
  22       1.041e+01      -1.765e+01       1.471e+00          -0.061          -0.132          -0.989       8.015e-03         -0.0768
  23       1.029e+01      -1.765e+01       1.482e+00          -0.144          -0.175          -0.974       6.153e-03          0.0931
  24       1.021e+01      -1.765e+01       1.500e+00          -0.318          -0.266          -0.910       4.070e-03          0.3850
  25       1.017e+01      -1.764e+01       1.527e+00          -0.758          -0.475          -0.447       2.644e-03         -0.0685
  26       1.017e+01      -1.764e+01       1.560e+00          -0.757          -0.390           0.525       2.628e-03         -2.5226
  27       1.021e+01      -1.764e+01       1.586e+00          -0.298          -0.093           0.950       4.025e-03         -2.6855
  28       1.029e+01      -1.764e+01       1.603e+00          -0.137           0.001           0.991       6.129e-03         -1.1877
  29       1.041e+01      -1.764e+01       1.614e+00          -0.064           0.041           0.997       7.994e-03         -0.7419
  30       1.055e+01      -1.764e+01       1.620e+00          -0.028           0.060           0.998       9.432e-03         -0.5750
  31       1.071e+01      -1.764e+01       1.623e+00          -0.004           0.071           0.997       1.034e-02         -0.5116
  32       1.089e+01      -1.764e+01       1.622e+00           0.015           0.080           0.997       1.065e-02         -0.4949
  33       1.106e+01      -1.764e+01       1.618e+00           0.036           0.090           0.995       1.034e-02         -0.5283
  34       1.122e+01      -1.764e+01       1.609e+00           0.070           0.103           0.992       9.452e-03         -0.6448
  35       1.137e+01      -1.764e+01       1.595e+00           0.123           0.122           0.985       8.038e-03         -0.8587
  36       1.148e+01      -1.764e+01       1.577e+00           0.199           0.148           0.969       6.189e-03         -1.0535
  37       1.156e+01      -1.764e+01       1.558e+00           0.273           0.171           0.947       3.945e-03         -0.9864
  38       1.161e+01      -1.764e+01       1.546e+00           0.324           0.186           0.927       1.367e-03         -0.8667
Strip 2
  39       1.157e+01      -1.752e+01       1.534e+00          -0.264          -0.169          -0.950       4.088e-03         -0.2853
  40       1.152e+01      -1.752e+01       1.544e+00          -0.192          -0.147          -0.970       1.179e-02         -0.2779
  41       1.144e+01      -1.752e+01       1.551e+00          -0.027          -0.093          -0.995       1.851e-02         -0.2320
  42       1.132e+01      -1.752e+01       1.545e+00           0.115          -0.043          -0.992       2.456e-02         -0.1772
  43       1.118e+01      -1.752e+01       1.519e+00           0.215          -0.004          -0.977       2.964e-02         -0.1449
  44       1.101e+01      -1.753e+01       1.485e+00           0.196          -0.012          -0.981       3.237e-02         -0.1836
  45       1.083e+01      -1.753e+01       1.461e+00           0.070          -0.068          -0.995       3.270e-02         -0.1872
  46       1.066e+01      -1.753e+01       1.453e+00           0.018          -0.092          -0.996       3.168e-02         -0.1191
  47       1.049e+01      -1.753e+01       1.453e+00          -0.019          -0.110          -0.994       2.890e-02         -0.0376
  48       1.034e+01      -1.753e+01       1.459e+00          -0.061          -0.132          -0.989       2.449e-02          0.0803
  49       1.022e+01      -1.753e+01       1.470e+00          -0.144          -0.175          -0.974       1.881e-02          0.2874
  50       1.014e+01      -1.753e+01       1.488e+00          -0.317          -0.266          -0.910       1.244e-02          0.5344
  51       1.010e+01      -1.752e+01       1.516e+00          -0.758          -0.475          -0.447       8.084e-03         -0.4113
  52       1.010e+01      -1.752e+01       1.550e+00          -0.757          -0.390           0.524       8.025e-03         -3.5306
  53       1.014e+01      -1.752e+01       1.576e+00          -0.298          -0.093           0.950       1.229e-02         -3.5533
  54       1.022e+01      -1.752e+01       1.594e+00          -0.137           0.001           0.991       1.872e-02         -1.6097
  55       1.034e+01      -1.752e+01       1.605e+00          -0.064           0.041           0.997       2.442e-02         -0.9490
  56       1.049e+01      -1.752e+01       1.611e+00          -0.028           0.060           0.998       2.882e-02         -0.6571
  57       1.066e+01      -1.751e+01       1.614e+00          -0.004           0.071           0.997       3.158e-02         -0.5305
  58       1.083e+01      -1.752e+01       1.613e+00           0.015           0.080           0.997       3.253e-02         -0.4865
  59       1.101e+01      -1.752e+01       1.609e+00           0.036           0.090           0.995       3.161e-02         -0.4999
  60       1.118e+01      -1.752e+01       1.600e+00           0.070           0.103           0.992       2.888e-02         -0.5684
  61       1.132e+01      -1.752e+01       1.586e+00           0.123           0.122           0.985       2.457e-02         -0.6679
  62       1.144e+01      -1.752e+01       1.567e+00           0.199           0.148           0.969       1.891e-02         -0.6916
  63       1.152e+01      -1.752e+01       1.548e+00           0.273           0.171           0.947       1.206e-02         -0.5298
  64       1.157e+01      -1.752e+01       1.535e+00           0.324           0.186           0.927       4.178e-03         -0.3761
Strip 3
  65       1.149e+01      -1.728e+01       1.513e+00          -0.264          -0.169          -0.950       7.061e-03          0.1779
  66       1.145e+01      -1.728e+01       1.523e+00          -0.192          -0.147          -0.970       2.037e-02          0.2236
  67       1.136e+01      -1.728e+01       1.531e+00          -0.027          -0.093          -0.995       3.195e-02          0.2460
  68       1.124e+01      -1.728e+01       1.524e+00           0.115          -0.043          -0.992       4.240e-02          0.2023
  69       1.108e+01      -1.728e+01       1.498e+00           0.215          -0.004          -0.977       5.116e-02          0.1130
  70       1.091e+01      -1.729e+01       1.462e+00           0.196          -0.012          -0.981       5.587e-02         -0.0159
  71       1.073e+01      -1.729e+01       1.437e+00           0.070          -0.068          -0.995       5.646e-02         -0.0451
  72       1.054e+01      -1.729e+01       1.429e+00           0.018          -0.092          -0.996       5.470e-02          0.0330
  73       1.037e+01      -1.729e+01       1.429e+00          -0.019          -0.110          -0.994       4.991e-02          0.1391
  74       1.021e+01      -1.729e+01       1.435e+00          -0.061          -0.132          -0.989       4.229e-02          0.2848
  75       1.009e+01      -1.729e+01       1.447e+00          -0.144          -0.175          -0.974       3.248e-02          0.4979
  76       1.001e+01      -1.729e+01       1.466e+00          -0.317          -0.266          -0.910       2.150e-02          0.6568
  77       9.961e+00      -1.728e+01       1.494e+00          -0.757          -0.475          -0.449       1.397e-02         -0.6865
  78       9.961e+00      -1.728e+01       1.529e+00          -0.758          -0.391           0.522       1.384e-02         -4.2997
  79       1.001e+01      -1.728e+01       1.557e+00          -0.298          -0.093           0.950       2.121e-02         -4.1742
  80       1.009e+01      -1.728e+01       1.575e+00          -0.137           0.001           0.991       3.232e-02         -1.9415
  81       1.021e+01      -1.728e+01       1.587e+00          -0.064           0.041           0.997       4.216e-02         -1.1700
  82       1.037e+01      -1.728e+01       1.594e+00          -0.028           0.060           0.998       4.976e-02         -0.7900
  83       1.054e+01      -1.727e+01       1.596e+00          -0.004           0.071           0.997       5.453e-02         -0.5881
  84       1.073e+01      -1.727e+01       1.595e+00           0.015           0.080           0.997       5.617e-02         -0.4814
  85       1.091e+01      -1.728e+01       1.591e+00           0.036           0.090           0.995       5.457e-02         -0.4309
  86       1.108e+01      -1.728e+01       1.582e+00           0.070           0.103           0.992       4.988e-02         -0.4177
  87       1.124e+01      -1.728e+01       1.567e+00           0.123           0.122           0.985       4.242e-02         -0.4100
  88       1.136e+01      -1.728e+01       1.548e+00           0.199           0.148           0.969       3.267e-02         -0.3317
  89       1.145e+01      -1.728e+01       1.527e+00           0.273           0.171           0.947       2.083e-02         -0.1213
  90       1.149e+01      -1.728e+01       1.514e+00           0.324           0.186           0.927       7.217e-03          0.0485
Strip 4
  91       1.137e+01      -1.692e+01       1.482e+00          -0.264          -0.169          -0.950       1.040e-02          0.2763
  92       1.133e+01      -1.692e+01       1.492e+00          -0.192          -0.147          -0.970       2.999e-02          0.3323
  93       1.123e+01      -1.692e+01       1.501e+00          -0.027          -0.093          -0.995       4.703e-02          0.3617
  94       1.110e+01      -1.692e+01       1.494e+00           0.115          -0.043          -0.992       6.238e-02          0.3133
  95       1.094e+01      -1.692e+01       1.466e+00           0.215          -0.004          -0.977       7.525e-02          0.2131
  96       1.076e+01      -1.693e+01       1.427e+00           0.196          -0.012          -0.981       8.217e-02          0.0758
  97       1.056e+01      -1.693e+01       1.401e+00           0.070          -0.068          -0.995       8.307e-02          0.0480
  98       1.037e+01      -1.693e+01       1.393e+00           0.018          -0.092          -0.996       8.050e-02          0.1334
  99       1.019e+01      -1.693e+01       1.393e+00          -0.019          -0.110          -0.994       7.345e-02          0.2448
 100       1.002e+01      -1.693e+01       1.399e+00          -0.061          -0.132          -0.989       6.225e-02          0.3870
 101       9.894e+00      -1.693e+01       1.411e+00          -0.144          -0.175          -0.974       4.782e-02          0.5819
 102       9.803e+00      -1.693e+01       1.432e+00          -0.317          -0.266          -0.910       3.167e-02          0.6676
 103       9.756e+00      -1.692e+01       1.462e+00          -0.756          -0.475          -0.451       2.059e-02         -0.9350
 104       9.756e+00      -1.692e+01       1.499e+00          -0.759          -0.391           0.520       2.035e-02         -4.8379
 105       9.803e+00      -1.692e+01       1.529e+00          -0.299          -0.093           0.950       3.119e-02         -4.5861
 106       9.894e+00      -1.692e+01       1.547e+00          -0.137           0.001           0.991       4.754e-02         -2.1499
 107       1.002e+01      -1.692e+01       1.560e+00          -0.064           0.041           0.997       6.204e-02         -1.3219
 108       1.019e+01      -1.692e+01       1.567e+00          -0.028           0.060           0.998       7.322e-02         -0.9114
 109       1.037e+01      -1.692e+01       1.570e+00          -0.004           0.071           0.997       8.025e-02         -0.6816
 110       1.056e+01      -1.692e+01       1.569e+00           0.015           0.080           0.997       8.266e-02         -0.5452
 111       1.076e+01      -1.692e+01       1.564e+00           0.036           0.090           0.995       8.032e-02         -0.4654
 112       1.094e+01      -1.692e+01       1.554e+00           0.070           0.103           0.992       7.341e-02         -0.4231
 113       1.110e+01      -1.692e+01       1.539e+00           0.123           0.122           0.985       6.245e-02         -0.3859
 114       1.123e+01      -1.692e+01       1.518e+00           0.199           0.148           0.969       4.810e-02         -0.2836
 115       1.133e+01      -1.692e+01       1.497e+00           0.273           0.171           0.947       3.067e-02         -0.0599
 116       1.137e+01      -1.692e+01       1.483e+00           0.324           0.186           0.928       1.063e-02          0.1134
Strip 5
 117       1.122e+01      -1.645e+01       1.441e+00          -0.264          -0.168          -0.950       1.422e-02          0.3110
 118       1.117e+01      -1.645e+01       1.452e+00          -0.192          -0.147          -0.970       4.101e-02          0.3720
 119       1.107e+01      -1.645e+01       1.461e+00          -0.027          -0.093          -0.995       6.429e-02          0.4068
 120       1.093e+01      -1.645e+01       1.453e+00           0.115          -0.043          -0.992       8.525e-02          0.3608
 121       1.076e+01      -1.645e+01       1.423e+00           0.215          -0.003          -0.977       1.028e-01          0.2619
 122       1.056e+01      -1.645e+01       1.382e+00           0.196          -0.012          -0.981       1.123e-01          0.1277
 123       1.035e+01      -1.646e+01       1.354e+00           0.070          -0.068          -0.995       1.135e-01          0.1035
 124       1.014e+01      -1.646e+01       1.345e+00           0.018          -0.092          -0.996       1.100e-01          0.1896
 125       9.945e+00      -1.646e+01       1.345e+00          -0.019          -0.110          -0.994       1.004e-01          0.2983
 126       9.772e+00      -1.646e+01       1.351e+00          -0.061          -0.132          -0.989       8.511e-02          0.4347
 127       9.632e+00      -1.645e+01       1.365e+00          -0.144          -0.175          -0.974       6.540e-02          0.6183
 128       9.534e+00      -1.645e+01       1.386e+00          -0.316          -0.266          -0.911       4.333e-02          0.6608
 129       9.484e+00      -1.645e+01       1.419e+00          -0.755          -0.474          -0.453       2.818e-02         -1.0881
 130       9.484e+00      -1.645e+01       1.459e+00          -0.760          -0.392           0.518       2.777e-02         -5.1670
 131       9.534e+00      -1.645e+01       1.491e+00          -0.299          -0.093           0.950       4.259e-02         -4.8353
 132       9.632e+00      -1.644e+01       1.511e+00          -0.137           0.001           0.991       6.495e-02         -2.2707
 133       9.772e+00      -1.644e+01       1.524e+00          -0.064           0.041           0.997       8.478e-02         -1.4100
 134       9.945e+00      -1.644e+01       1.532e+00          -0.028           0.060           0.998       1.001e-01         -0.9856
 135       1.014e+01      -1.644e+01       1.535e+00          -0.004           0.071           0.997       1.097e-01         -0.7468
 136       1.035e+01      -1.644e+01       1.534e+00           0.015           0.080           0.997       1.130e-01         -0.6007
 137       1.056e+01      -1.644e+01       1.529e+00           0.036           0.090           0.995       1.098e-01         -0.5087
 138       1.076e+01      -1.644e+01       1.518e+00           0.070           0.103           0.992       1.004e-01         -0.4513
 139       1.093e+01      -1.645e+01       1.502e+00           0.123           0.122           0.985       8.539e-02         -0.3981
 140       1.107e+01      -1.645e+01       1.480e+00           0.199           0.148           0.969       6.577e-02         -0.2826
 141       1.117e+01      -1.645e+01       1.457e+00           0.273           0.171           0.947       4.194e-02         -0.0497
 142       1.122e+01      -1.645e+01       1.442e+00           0.324           0.186           0.928       1.454e-02          0.1270
Strip 6
 143       1.103e+01      -1.586e+01       1.390e+00          -0.263          -0.168          -0.950       1.864e-02          0.3267
 144       1.097e+01      -1.586e+01       1.401e+00          -0.192          -0.147          -0.970       5.374e-02          0.3904
 145       1.087e+01      -1.586e+01       1.411e+00          -0.027          -0.093          -0.995       8.421e-02          0.4282
 146       1.072e+01      -1.586e+01       1.403e+00           0.115          -0.043          -0.992       1.116e-01          0.3843
 147       1.053e+01      -1.586e+01       1.370e+00           0.215          -0.003          -0.977       1.346e-01          0.2874
 148       1.031e+01      -1.587e+01       1.326e+00           0.196          -0.012          -0.981       1.470e-01          0.1557
 149       1.009e+01      -1.587e+01       1.295e+00           0.070          -0.068          -0.995       1.487e-01          0.1329
 150       9.861e+00      -1.587e+01       1.285e+00           0.018          -0.092          -0.996       1.441e-01          0.2180
 151       9.648e+00      -1.587e+01       1.285e+00          -0.019          -0.110          -0.994       1.315e-01          0.3241
 152       9.460e+00      -1.587e+01       1.292e+00          -0.061          -0.132          -0.989       1.115e-01          0.4568
 153       9.308e+00      -1.587e+01       1.307e+00          -0.144          -0.175          -0.974       8.572e-02          0.6345
 154       9.202e+00      -1.587e+01       1.331e+00          -0.316          -0.266          -0.911       5.683e-02          0.6571
 155       9.147e+00      -1.586e+01       1.366e+00          -0.754          -0.474          -0.456       3.697e-02         -1.1515
 156       9.147e+00      -1.586e+01       1.409e+00          -0.761          -0.393           0.516       3.632e-02         -5.3241
 157       9.202e+00      -1.586e+01       1.444e+00          -0.299          -0.094           0.950       5.572e-02         -4.9583
 158       9.308e+00      -1.586e+01       1.466e+00          -0.137           0.001           0.991       8.503e-02         -2.3293
 159       9.460e+00      -1.586e+01       1.480e+00          -0.064           0.041           0.997       1.110e-01         -1.4533
 160       9.648e+00      -1.586e+01       1.489e+00          -0.028           0.060           0.998       1.311e-01         -1.0232
 161       9.861e+00      -1.586e+01       1.492e+00          -0.004           0.071           0.997       1.437e-01         -0.7815
 162       1.009e+01      -1.586e+01       1.491e+00           0.015           0.080           0.997       1.480e-01         -0.6323
 163       1.031e+01      -1.586e+01       1.485e+00           0.036           0.090           0.995       1.438e-01         -0.5357
 164       1.053e+01      -1.586e+01       1.474e+00           0.070           0.103           0.992       1.315e-01         -0.4715
 165       1.072e+01      -1.586e+01       1.456e+00           0.123           0.122           0.985       1.119e-01         -0.4104
 166       1.087e+01      -1.586e+01       1.432e+00           0.199           0.148           0.969       8.620e-02         -0.2876
 167       1.097e+01      -1.586e+01       1.407e+00           0.272           0.171           0.947       5.497e-02         -0.0489
 168       1.103e+01      -1.586e+01       1.391e+00           0.324           0.186           0.928       1.905e-02          0.1303
Strip 7
 169       1.080e+01      -1.517e+01       1.329e+00          -0.263          -0.168          -0.950       2.373e-02          0.3344
 170       1.074e+01      -1.517e+01       1.342e+00          -0.192          -0.147          -0.970       6.842e-02          0.3995
 171       1.063e+01      -1.517e+01       1.353e+00          -0.027          -0.093          -0.995       1.072e-01          0.4391
 172       1.046e+01      -1.517e+01       1.344e+00           0.115          -0.043          -0.992       1.420e-01          0.3962
 173       1.026e+01      -1.517e+01       1.308e+00           0.216          -0.003          -0.976       1.712e-01          0.3002
 174       1.002e+01      -1.517e+01       1.259e+00           0.196          -0.012          -0.981       1.869e-01          0.1692
 175       9.776e+00      -1.517e+01       1.226e+00           0.070          -0.068          -0.995       1.892e-01          0.1463
 176       9.528e+00      -1.517e+01       1.215e+00           0.018          -0.092          -0.996       1.834e-01          0.2304
 177       9.295e+00      -1.517e+01       1.215e+00          -0.019          -0.110          -0.994       1.674e-01          0.3347
 178       9.090e+00      -1.517e+01       1.223e+00          -0.061          -0.131          -0.989       1.419e-01          0.4651
 179       8.924e+00      -1.517e+01       1.239e+00          -0.144          -0.175          -0.974       1.091e-01          0.6402
 180       8.808e+00      -1.517e+01       1.265e+00          -0.316          -0.265          -0.911       7.241e-02          0.6599
 181       8.749e+00      -1.517e+01       1.303e+00          -0.752          -0.473          -0.458       4.712e-02         -1.1459
 182       8.749e+00      -1.517e+01       1.351e+00          -0.762          -0.394           0.513       4.615e-02         -5.3522
 183       8.808e+00      -1.517e+01       1.388e+00          -0.300          -0.094           0.949       7.082e-02         -4.9890
 184       8.924e+00      -1.516e+01       1.412e+00          -0.137           0.001           0.991       1.082e-01         -2.3449
 185       9.090e+00      -1.516e+01       1.428e+00          -0.064           0.041           0.997       1.412e-01         -1.4671
 186       9.295e+00      -1.516e+01       1.437e+00          -0.028           0.060           0.998       1.668e-01         -1.0370
 187       9.528e+00      -1.516e+01       1.441e+00          -0.004           0.071           0.997       1.828e-01         -0.7956
 188       9.776e+00      -1.516e+01       1.439e+00           0.015           0.080           0.997       1.884e-01         -0.6463
 189       1.002e+01      -1.516e+01       1.433e+00           0.036           0.090           0.995       1.831e-01         -0.5482
 190       1.026e+01      -1.516e+01       1.421e+00           0.070           0.103           0.992       1.674e-01         -0.4813
 191       1.046e+01      -1.516e+01       1.402e+00           0.123           0.122           0.985       1.424e-01         -0.4168
 192       1.063e+01      -1.517e+01       1.375e+00           0.199           0.148           0.969       1.098e-01         -0.2907
 193       1.074e+01      -1.517e+01       1.348e+00           0.272           0.171           0.947       7.001e-02         -0.0492
 194       1.080e+01      -1.517e+01       1.330e+00           0.323           0.186           0.928       2.427e-02          0.1312
Strip 8
 195       1.054e+01      -1.437e+01       1.259e+00          -0.263          -0.168          -0.950       2.956e-02          0.3384
 196       1.048e+01      -1.437e+01       1.274e+00          -0.192          -0.147          -0.970       8.522e-02          0.4042
 197       1.035e+01      -1.437e+01       1.285e+00          -0.027          -0.093          -0.995       1.334e-01          0.4447
 198       1.017e+01      -1.437e+01       1.275e+00           0.115          -0.043          -0.992       1.768e-01          0.4023
 199       9.945e+00      -1.437e+01       1.236e+00           0.216          -0.003          -0.976       2.130e-01          0.3062
 200       9.689e+00      -1.437e+01       1.183e+00           0.196          -0.012          -0.980       2.326e-01          0.1746
 201       9.417e+00      -1.438e+01       1.146e+00           0.070          -0.068          -0.995       2.355e-01          0.1508
 202       9.145e+00      -1.438e+01       1.134e+00           0.018          -0.092          -0.996       2.283e-01          0.2337
 203       8.890e+00      -1.438e+01       1.134e+00          -0.019          -0.110          -0.994       2.084e-01          0.3366
 204       8.665e+00      -1.438e+01       1.143e+00          -0.061          -0.131          -0.989       1.768e-01          0.4652
 205       8.483e+00      -1.437e+01       1.161e+00          -0.144          -0.175          -0.974       1.360e-01          0.6396
 206       8.356e+00      -1.437e+01       1.189e+00          -0.315          -0.265          -0.911       9.026e-02          0.6679
 207       8.290e+00      -1.437e+01       1.231e+00          -0.751          -0.473          -0.461       5.876e-02         -1.0925
 208       8.290e+00      -1.437e+01       1.283e+00          -0.763          -0.395           0.511       5.738e-02         -5.2888
 209       8.356e+00      -1.437e+01       1.324e+00          -0.300          -0.094           0.949       8.808e-02         -4.9547
 210       8.483e+00      -1.437e+01       1.351e+00          -0.137           0.000           0.991       1.346e-01         -2.3314
 211       8.665e+00      -1.437e+01       1.368e+00          -0.064           0.041           0.997       1.758e-01         -1.4618
 212       8.890e+00      -1.437e+01       1.378e+00          -0.028           0.060           0.998       2.076e-01         -1.0360
 213       9.145e+00      -1.436e+01       1.382e+00          -0.004           0.071           0.997       2.276e-01         -0.7972
 214       9.417e+00      -1.436e+01       1.381e+00           0.015           0.080           0.997       2.345e-01         -0.6493
 215       9.689e+00      -1.437e+01       1.374e+00           0.036           0.090           0.995       2.280e-01         -0.5516
 216       9.945e+00      -1.437e+01       1.360e+00           0.070           0.103           0.992       2.084e-01         -0.4841
 217       1.017e+01      -1.437e+01       1.339e+00           0.123           0.122           0.985       1.774e-01         -0.4184
 218       1.035e+01      -1.437e+01       1.310e+00           0.199           0.148           0.969       1.367e-01         -0.2914
 219       1.048e+01      -1.437e+01       1.280e+00           0.272           0.171           0.947       8.721e-02         -0.0491
 220       1.054e+01      -1.437e+01       1.261e+00           0.323           0.186           0.928       3.023e-02          0.1316
Strip 9
 221       1.025e+01      -1.347e+01       1.181e+00          -0.263          -0.168          -0.950       3.616e-02          0.3404
 222       1.018e+01      -1.347e+01       1.197e+00          -0.192          -0.147          -0.970       1.042e-01          0.4067
 223       1.004e+01      -1.347e+01       1.210e+00          -0.027          -0.093          -0.995       1.631e-01          0.4476
 224       9.841e+00      -1.347e+01       1.199e+00           0.115          -0.043          -0.992       2.160e-01          0.4053
 225       9.594e+00      -1.347e+01       1.156e+00           0.216          -0.003          -0.976       2.602e-01          0.3086
 226       9.313e+00      -1.348e+01       1.097e+00           0.196          -0.012          -0.980       2.842e-01          0.1754
 227       9.014e+00      -1.348e+01       1.057e+00           0.070          -0.068          -0.995       2.878e-01          0.1500
 228       8.716e+00      -1.348e+01       1.044e+00           0.018          -0.092          -0.996       2.791e-01          0.2317
 229       8.435e+00      -1.348e+01       1.044e+00          -0.019          -0.110          -0.994       2.548e-01          0.3331
 230       8.187e+00      -1.348e+01       1.053e+00          -0.061          -0.131          -0.989       2.161e-01          0.4602
 231       7.988e+00      -1.348e+01       1.073e+00          -0.143          -0.175          -0.974       1.663e-01          0.6348
 232       7.848e+00      -1.348e+01       1.104e+00          -0.315          -0.265          -0.911       1.105e-01          0.6790
 233       7.776e+00      -1.348e+01       1.150e+00          -0.750          -0.472          -0.463       7.193e-02         -1.0080
 234       7.776e+00      -1.347e+01       1.207e+00          -0.765          -0.396           0.509       7.004e-02         -5.1616
 235       7.848e+00      -1.347e+01       1.252e+00          -0.300          -0.094           0.949       1.076e-01         -4.8749
 236       7.988e+00      -1.347e+01       1.281e+00          -0.137           0.000           0.991       1.644e-01         -2.2982
 237       8.187e+00      -1.347e+01       1.301e+00          -0.064           0.041           0.997       2.149e-01         -1.4440
 238       8.435e+00      -1.347e+01       1.312e+00          -0.028           0.060           0.998       2.538e-01         -1.0255
 239       8.716e+00      -1.347e+01       1.316e+00          -0.004           0.071           0.997       2.783e-01         -0.7908
 240       9.014e+00      -1.347e+01       1.314e+00           0.015           0.080           0.997       2.867e-01         -0.6456
 241       9.313e+00      -1.347e+01       1.307e+00           0.036           0.090           0.995       2.787e-01         -0.5494
 242       9.594e+00      -1.347e+01       1.292e+00           0.070           0.103           0.992       2.548e-01         -0.4825
 243       9.841e+00      -1.347e+01       1.269e+00           0.123           0.122           0.985       2.169e-01         -0.4170
 244       1.004e+01      -1.347e+01       1.237e+00           0.199           0.148           0.969       1.672e-01         -0.2902
 245       1.018e+01      -1.347e+01       1.204e+00           0.272           0.171           0.947       1.067e-01         -0.0485
 246       1.025e+01      -1.347e+01       1.182e+00           0.323           0.186           0.928       3.698e-02          0.1316
Strip 10
 247       9.931e+00      -1.249e+01       1.095e+00          -0.263          -0.168          -0.950       4.351e-02          0.3418
 248       9.852e+00      -1.249e+01       1.112e+00          -0.191          -0.147          -0.970       1.254e-01          0.4082
 249       9.699e+00      -1.248e+01       1.126e+00          -0.027          -0.093          -0.995       1.962e-01          0.4492
 250       9.479e+00      -1.248e+01       1.114e+00           0.115          -0.043          -0.992       2.598e-01          0.4065
 251       9.207e+00      -1.249e+01       1.067e+00           0.216          -0.003          -0.976       3.128e-01          0.3088
 252       8.898e+00      -1.249e+01       1.002e+00           0.196          -0.012          -0.980       3.416e-01          0.1735
 253       8.570e+00      -1.249e+01       9.581e-01           0.070          -0.068          -0.995       3.461e-01          0.1460
 254       8.242e+00      -1.249e+01       9.436e-01           0.018          -0.092          -0.996       3.357e-01          0.2263
 255       7.933e+00      -1.249e+01       9.435e-01          -0.019          -0.110          -0.994       3.065e-01          0.3262
 256       7.661e+00      -1.249e+01       9.540e-01          -0.061          -0.131          -0.989       2.600e-01          0.4517
 257       7.441e+00      -1.249e+01       9.755e-01          -0.143          -0.175          -0.974       2.001e-01          0.6270
 258       7.288e+00      -1.249e+01       1.010e+00          -0.315          -0.265          -0.912       1.330e-01          0.6916
 259       7.209e+00      -1.249e+01       1.061e+00          -0.749          -0.472          -0.465       8.663e-02         -0.9033
 260       7.209e+00      -1.248e+01       1.123e+00          -0.765          -0.396           0.507       8.414e-02         -4.9901
 261       7.288e+00      -1.248e+01       1.173e+00          -0.301          -0.094           0.949       1.292e-01         -4.7629
 262       7.441e+00      -1.248e+01       1.205e+00          -0.137           0.000           0.991       1.977e-01         -2.2514
 263       7.661e+00      -1.248e+01       1.226e+00          -0.064           0.041           0.997       2.584e-01         -1.4175
 264       7.933e+00      -1.248e+01       1.238e+00          -0.028           0.060           0.998       3.052e-01         -1.0087
 265       8.242e+00      -1.248e+01       1.243e+00          -0.004           0.071           0.997       3.347e-01         -0.7796
 266       8.570e+00      -1.248e+01       1.242e+00           0.015           0.080           0.997       3.449e-01         -0.6377
 267       8.898e+00      -1.248e+01       1.233e+00           0.036           0.090           0.995       3.352e-01         -0.5437
 268       9.207e+00      -1.248e+01       1.217e+00           0.070           0.103           0.992       3.066e-01         -0.4782
 269       9.479e+00      -1.248e+01       1.191e+00           0.123           0.122           0.985       2.610e-01         -0.4137
 270       9.699e+00      -1.248e+01       1.156e+00           0.199           0.148           0.969       2.012e-01         -0.2879
 271       9.852e+00      -1.248e+01       1.120e+00           0.272           0.171           0.947       1.284e-01         -0.0474
 272       9.931e+00      -1.249e+01       1.096e+00           0.323           0.186           0.928       4.451e-02          0.1318
Strip 11
 273       9.583e+00      -1.141e+01       1.001e+00          -0.263          -0.168          -0.950       5.159e-02          0.3424
 274       9.496e+00      -1.141e+01       1.020e+00          -0.191          -0.147          -0.970       1.487e-01          0.4089
 275       9.327e+00      -1.141e+01       1.036e+00          -0.027          -0.093          -0.995       2.326e-01          0.4500
 276       9.086e+00      -1.141e+01       1.022e+00           0.115          -0.043          -0.992       3.078e-01          0.4070
 277       8.787e+00      -1.141e+01       9.707e-01           0.216          -0.003          -0.976       3.706e-01          0.3079
 278       8.448e+00      -1.141e+01       8.994e-01           0.197          -0.011          -0.980       4.047e-01          0.1698
 279       8.088e+00      -1.142e+01       8.510e-01           0.070          -0.068          -0.995       4.101e-01          0.1399
 280       7.727e+00      -1.142e+01       8.349e-01           0.018          -0.092          -0.996       3.978e-01          0.2186
 281       7.388e+00      -1.142e+01       8.349e-01          -0.019          -0.110          -0.994       3.633e-01          0.3167
 282       7.089e+00      -1.142e+01       8.464e-01          -0.061          -0.131          -0.989       3.082e-01          0.4406
 283       6.848e+00      -1.142e+01       8.700e-01          -0.143          -0.175          -0.974       2.373e-01          0.6167
 284       6.679e+00      -1.141e+01       9.074e-01          -0.314          -0.265          -0.912       1.578e-01          0.7041
 285       6.593e+00      -1.141e+01       9.640e-01          -0.748          -0.472          -0.467       1.028e-01         -0.7859
 286       6.593e+00      -1.141e+01       1.033e+00          -0.766          -0.397           0.505       9.961e-02         -4.7858
 287       6.679e+00      -1.141e+01       1.087e+00          -0.301          -0.095           0.949       1.530e-01         -4.6266
 288       6.848e+00      -1.141e+01       1.122e+00          -0.138           0.000           0.990       2.342e-01         -2.1942
 289       7.089e+00      -1.141e+01       1.146e+00          -0.064           0.041           0.997       3.062e-01         -1.3849
 290       7.388e+00      -1.141e+01       1.159e+00          -0.028           0.060           0.998       3.617e-01         -0.9876
 291       7.727e+00      -1.141e+01       1.164e+00          -0.004           0.071           0.997       3.967e-01         -0.7649
 292       8.088e+00      -1.141e+01       1.162e+00           0.015           0.080           0.997       4.088e-01         -0.6271
 293       8.448e+00      -1.141e+01       1.153e+00           0.036           0.090           0.995       3.973e-01         -0.5358
 294       8.787e+00      -1.141e+01       1.135e+00           0.070           0.103           0.992       3.634e-01         -0.4721
 295       9.086e+00      -1.141e+01       1.107e+00           0.123           0.122           0.985       3.094e-01         -0.4092
 296       9.327e+00      -1.141e+01       1.069e+00           0.199           0.148           0.969       2.385e-01         -0.2851
 297       9.496e+00      -1.141e+01       1.029e+00           0.272           0.171           0.947       1.522e-01         -0.0464
 298       9.583e+00      -1.141e+01       1.003e+00           0.323           0.186           0.928       5.278e-02          0.1319
Strip 12
 299       9.208e+00      -1.026e+01       9.008e-01          -0.263          -0.168          -0.950       6.032e-02          0.3430
 300       9.113e+00      -1.026e+01       9.214e-01          -0.191          -0.147          -0.970       1.738e-01          0.4095
 301       8.928e+00      -1.026e+01       9.384e-01          -0.027          -0.093          -0.995       2.719e-01          0.4504
 302       8.664e+00      -1.026e+01       9.240e-01           0.115          -0.043          -0.992       3.597e-01          0.4068
 303       8.337e+00      -1.026e+01       8.673e-01           0.216          -0.003          -0.976       4.329e-01          0.3062
 304       7.965e+00      -1.026e+01       7.891e-01           0.197          -0.011          -0.980       4.728e-01          0.1650
 305       7.570e+00      -1.026e+01       7.360e-01           0.070          -0.068          -0.995       4.792e-01          0.1322
 306       7.175e+00      -1.026e+01       7.184e-01           0.018          -0.092          -0.996       4.649e-01          0.2091
 307       6.803e+00      -1.026e+01       7.184e-01          -0.019          -0.110          -0.994       4.246e-01          0.3053
 308       6.476e+00      -1.026e+01       7.310e-01          -0.061          -0.131          -0.989       3.603e-01          0.4272
 309       6.212e+00      -1.026e+01       7.569e-01          -0.143          -0.175          -0.974       2.774e-01          0.6040
 310       6.027e+00      -1.026e+01       7.979e-01          -0.314          -0.265          -0.912       1.845e-01          0.7157
 311       5.932e+00      -1.026e+01       8.599e-01          -0.748          -0.471          -0.468       1.203e-01         -0.6599
 312       5.932e+00      -1.026e+01       9.351e-01          -0.767          -0.398           0.503       1.163e-01         -4.5557
 313       6.027e+00      -1.026e+01       9.952e-01          -0.301          -0.095           0.949       1.787e-01         -4.4705
 314       6.212e+00      -1.026e+01       1.034e+00          -0.138           0.000           0.990       2.736e-01         -2.1289
 315       6.476e+00      -1.026e+01       1.059e+00          -0.064           0.041           0.997       3.578e-01         -1.3474
 316       6.803e+00      -1.026e+01       1.074e+00          -0.028           0.060           0.998       4.228e-01         -0.9631
 317       7.175e+00      -1.026e+01       1.079e+00          -0.004           0.071           0.997       4.636e-01         -0.7476
 318       7.570e+00      -1.026e+01       1.077e+00           0.015           0.080           0.997       4.778e-01         -0.6145
 319       7.965e+00      -1.026e+01       1.067e+00           0.036           0.090           0.995       4.645e-01         -0.5264
 320       8.337e+00      -1.026e+01       1.048e+00           0.070           0.103           0.992       4.248e-01         -0.4648
 321       8.664e+00      -1.026e+01       1.017e+00           0.123           0.122           0.985       3.617e-01         -0.4038
 322       8.928e+00      -1.026e+01       9.747e-01           0.199           0.148           0.969       2.789e-01         -0.2818
 323       9.113e+00      -1.026e+01       9.312e-01           0.271           0.171           0.947       1.780e-01         -0.0451
 324       9.208e+00      -1.026e+01       9.025e-01           0.322           0.186           0.928       6.172e-02          0.1319
Strip 13
 325       8.812e+00      -9.038e+00       7.942e-01          -0.263          -0.168          -0.950       6.961e-02          0.3433
 326       8.707e+00      -9.038e+00       8.168e-01          -0.191          -0.147          -0.971       2.006e-01          0.4098
 327       8.505e+00      -9.038e+00       8.353e-01          -0.027          -0.093          -0.995       3.136e-01          0.4506
 328       8.217e+00      -9.038e+00       8.196e-01           0.115          -0.043          -0.992       4.148e-01          0.4063
 329       7.859e+00      -9.039e+00       7.576e-01           0.216          -0.003          -0.976       4.992e-01          0.3039
 330       7.453e+00      -9.041e+00       6.720e-01           0.197          -0.011          -0.980       5.452e-01          0.1591
 331       7.021e+00      -9.042e+00       6.140e-01           0.070          -0.068          -0.995       5.527e-01          0.1230
 332       6.589e+00      -9.042e+00       5.948e-01           0.018          -0.092          -0.996       5.363e-01          0.1980
 333       6.183e+00      -9.042e+00       5.948e-01          -0.019          -0.110          -0.994       4.898e-01          0.2921
 334       5.825e+00      -9.042e+00       6.086e-01          -0.061          -0.131          -0.989       4.157e-01          0.4117
 335       5.537e+00      -9.041e+00       6.369e-01          -0.143          -0.175          -0.974       3.201e-01          0.5887
 336       5.334e+00      -9.040e+00       6.817e-01          -0.314          -0.264          -0.912       2.130e-01          0.7254
 337       5.230e+00      -9.039e+00       7.495e-01          -0.747          -0.471          -0.469       1.389e-01         -0.5278
 338       5.230e+00      -9.038e+00       8.317e-01          -0.768          -0.398           0.502       1.341e-01         -4.3033
 339       5.334e+00      -9.037e+00       8.974e-01          -0.302          -0.095           0.949       2.060e-01         -4.2969
 340       5.537e+00      -9.036e+00       9.394e-01          -0.138           0.000           0.990       3.156e-01         -2.0564
 341       5.825e+00      -9.035e+00       9.673e-01          -0.064           0.041           0.997       4.127e-01         -1.3057
 342       6.183e+00      -9.035e+00       9.832e-01          -0.028           0.060           0.998       4.877e-01         -0.9357
 343       6.589e+00      -9.035e+00       9.896e-01          -0.004           0.071           0.997       5.348e-01         -0.7282
 344       7.021e+00      -9.035e+00       9.873e-01           0.015           0.080           0.997       5.512e-01         -0.6003
 345       7.453e+00      -9.035e+00       9.762e-01           0.036           0.090           0.995       5.358e-01         -0.5156
 346       7.859e+00      -9.036e+00       9.549e-01           0.070           0.103           0.992       4.900e-01         -0.4566
 347       8.217e+00      -9.036e+00       9.209e-01           0.123           0.122           0.985       4.173e-01         -0.3978
 348       8.505e+00      -9.037e+00       8.750e-01           0.199           0.148           0.969       3.218e-01         -0.2780
 349       8.707e+00      -9.038e+00       8.274e-01           0.271           0.171           0.947       2.054e-01         -0.0438
 350       8.812e+00      -9.038e+00       7.961e-01           0.322           0.186           0.928       7.122e-02          0.1317
Strip 14
 351       8.395e+00      -7.755e+00       6.822e-01          -0.262          -0.168          -0.950       7.932e-02          0.3436
 352       8.281e+00      -7.755e+00       7.068e-01          -0.191          -0.147          -0.971       2.285e-01          0.4101
 353       8.061e+00      -7.754e+00       7.270e-01          -0.027          -0.093          -0.995       3.573e-01          0.4506
 354       7.747e+00      -7.755e+00       7.099e-01           0.115          -0.043          -0.992       4.725e-01          0.4056
 355       7.357e+00      -7.756e+00       6.423e-01           0.216          -0.003          -0.976       5.685e-01          0.3012
 356       6.914e+00      -7.757e+00       5.491e-01           0.197          -0.011          -0.980       6.209e-01          0.1524
 357       6.444e+00      -7.758e+00       4.859e-01           0.070          -0.068          -0.995       6.296e-01          0.1126
 358       5.974e+00      -7.758e+00       4.650e-01           0.018          -0.092          -0.996       6.109e-01          0.1852
 359       5.531e+00      -7.758e+00       4.649e-01          -0.019          -0.110          -0.994       5.580e-01          0.2770
 360       5.141e+00      -7.758e+00       4.800e-01          -0.061          -0.131          -0.989       4.736e-01          0.3938
 361       4.827e+00      -7.757e+00       5.108e-01          -0.143          -0.175          -0.974       3.648e-01          0.5707
 362       4.607e+00      -7.757e+00       5.596e-01          -0.314          -0.264          -0.912       2.428e-01          0.7325
 363       4.494e+00      -7.756e+00       6.335e-01          -0.746          -0.471          -0.471       1.583e-01         -0.3905
 364       4.494e+00      -7.754e+00       7.231e-01          -0.768          -0.399           0.501       1.526e-01         -4.0292
 365       4.607e+00      -7.753e+00       7.947e-01          -0.302          -0.095           0.949       2.346e-01         -4.1058
 366       4.827e+00      -7.753e+00       8.405e-01          -0.138           0.000           0.990       3.594e-01         -1.9766
 367       5.141e+00      -7.752e+00       8.708e-01          -0.064           0.041           0.997       4.701e-01         -1.2597
 368       5.531e+00      -7.752e+00       8.882e-01          -0.028           0.060           0.998       5.555e-01         -0.9056
 369       5.974e+00      -7.752e+00       8.951e-01          -0.004           0.071           0.997       6.092e-01         -0.7070
 370       6.444e+00      -7.752e+00       8.926e-01           0.015           0.080           0.997       6.279e-01         -0.5847
 371       6.914e+00      -7.752e+00       8.805e-01           0.036           0.090           0.995       6.104e-01         -0.5039
 372       7.357e+00      -7.753e+00       8.573e-01           0.070           0.103           0.992       5.583e-01         -0.4477
 373       7.747e+00      -7.753e+00       8.202e-01           0.123           0.122           0.985       4.754e-01         -0.3913
 374       8.061e+00      -7.754e+00       7.703e-01           0.199           0.148           0.969       3.667e-01         -0.2740
 375       8.281e+00      -7.755e+00       7.184e-01           0.271           0.171           0.947       2.340e-01         -0.0426
 376       8.395e+00      -7.755e+00       6.843e-01           0.322           0.186           0.928       8.116e-02          0.1312
Strip 15
 377       7.960e+00      -6.419e+00       5.656e-01          -0.262          -0.168          -0.950       8.930e-02          0.3439
 378       7.837e+00      -6.418e+00       5.923e-01          -0.191          -0.147          -0.971       2.573e-01          0.4103
 379       7.598e+00      -6.418e+00       6.143e-01          -0.027          -0.093          -0.995       4.021e-01          0.4506
 380       7.258e+00      -6.418e+00       5.957e-01           0.115          -0.043          -0.992       5.317e-01          0.4047
 381       6.834e+00      -6.419e+00       5.223e-01           0.216          -0.003          -0.976       6.397e-01          0.2980
 382       6.354e+00      -6.420e+00       4.211e-01           0.197          -0.011          -0.980       6.986e-01          0.1447
 383       5.844e+00      -6.421e+00       3.525e-01           0.070          -0.068          -0.995       7.085e-01          0.1008
 384       5.333e+00      -6.421e+00       3.298e-01           0.018          -0.092          -0.996       6.875e-01          0.1709
 385       4.853e+00      -6.421e+00       3.297e-01          -0.019          -0.110          -0.994       6.280e-01          0.2598
 386       4.430e+00      -6.421e+00       3.461e-01          -0.061          -0.131          -0.989       5.330e-01          0.3733
 387       4.089e+00      -6.421e+00       3.795e-01          -0.143          -0.175          -0.974       4.106e-01          0.5491
 388       3.850e+00      -6.420e+00       4.325e-01          -0.313          -0.264          -0.912       2.734e-01          0.7359
 389       3.727e+00      -6.419e+00       5.128e-01          -0.746          -0.471          -0.472       1.783e-01         -0.2479
 390       3.727e+00      -6.418e+00       6.100e-01          -0.769          -0.399           0.500       1.716e-01         -3.7310
 391       3.850e+00      -6.417e+00       6.877e-01          -0.302          -0.095           0.949       2.639e-01         -3.8949
 392       4.089e+00      -6.417e+00       7.374e-01          -0.138           0.000           0.990       4.043e-01         -1.8884
 393       4.430e+00      -6.416e+00       7.704e-01          -0.064           0.041           0.997       5.290e-01         -1.2092
 394       4.853e+00      -6.416e+00       7.892e-01          -0.028           0.060           0.998       6.251e-01         -0.8727
 395       5.333e+00      -6.416e+00       7.967e-01          -0.004           0.071           0.997       6.856e-01         -0.6841
 396       5.844e+00      -6.416e+00       7.940e-01           0.015           0.080           0.997       7.066e-01         -0.5681
 397       6.354e+00      -6.416e+00       7.809e-01           0.036           0.090           0.995       6.870e-01         -0.4917
 398       6.834e+00      -6.417e+00       7.557e-01           0.070           0.103           0.992       6.284e-01         -0.4385
 399       7.258e+00      -6.417e+00       7.155e-01           0.123           0.122           0.985       5.351e-01         -0.3846
 400       7.598e+00      -6.418e+00       6.612e-01           0.198           0.148           0.969       4.127e-01         -0.2701
 401       7.837e+00      -6.418e+00       6.049e-01           0.271           0.171           0.947       2.635e-01         -0.0417
 402       7.960e+00      -6.419e+00       5.678e-01           0.322           0.186           0.928       9.138e-02          0.1304
Strip 16
 403       7.512e+00      -5.038e+00       4.452e-01          -0.262          -0.168          -0.950       9.935e-02          0.3441
 404       7.379e+00      -5.038e+00       4.740e-01          -0.191          -0.147          -0.971       2.862e-01          0.4105
 405       7.121e+00      -5.038e+00       4.978e-01          -0.027          -0.093          -0.995       4.473e-01          0.4506
 406       6.752e+00      -5.038e+00       4.777e-01           0.116          -0.043          -0.992       5.913e-01          0.4038
 407       6.295e+00      -5.039e+00       3.984e-01           0.216          -0.003          -0.976       7.113e-01          0.2944
 408       5.775e+00      -5.039e+00       2.889e-01           0.197          -0.011          -0.980       7.769e-01          0.1358
 409       5.223e+00      -5.040e+00       2.147e-01           0.070          -0.068          -0.995       7.880e-01          0.0873
 410       4.671e+00      -5.040e+00       1.901e-01           0.018          -0.092          -0.996       7.647e-01          0.1546
 411       4.152e+00      -5.040e+00       1.901e-01          -0.019          -0.110          -0.994       6.986e-01          0.2401
 412       3.694e+00      -5.040e+00       2.077e-01          -0.061          -0.131          -0.989       5.930e-01          0.3495
 413       3.326e+00      -5.040e+00       2.439e-01          -0.143          -0.175          -0.974       4.569e-01          0.5230
 414       3.068e+00      -5.039e+00       3.012e-01          -0.313          -0.264          -0.912       3.043e-01          0.7342
 415       2.935e+00      -5.039e+00       3.880e-01          -0.745          -0.470          -0.473       1.985e-01         -0.0986
 416       2.935e+00      -5.038e+00       4.932e-01          -0.769          -0.399           0.499       1.908e-01         -3.4015
 417       3.068e+00      -5.037e+00       5.772e-01          -0.302          -0.095           0.949       2.934e-01         -3.6578
 418       3.326e+00      -5.037e+00       6.310e-01          -0.138           0.000           0.990       4.497e-01         -1.7895
 419       3.694e+00      -5.037e+00       6.666e-01          -0.064           0.041           0.997       5.883e-01         -1.1529
 420       4.152e+00      -5.036e+00       6.870e-01          -0.028           0.060           0.998       6.953e-01         -0.8368
 421       4.671e+00      -5.036e+00       6.951e-01          -0.004           0.071           0.997       7.627e-01         -0.6597
 422       5.223e+00      -5.036e+00       6.922e-01           0.015           0.080           0.997       7.860e-01         -0.5511
 423       5.775e+00      -5.036e+00       6.780e-01           0.036           0.090           0.995       7.642e-01         -0.4795
 424       6.295e+00      -5.037e+00       6.507e-01           0.070           0.103           0.992       6.990e-01         -0.4295
 425       6.752e+00      -5.037e+00       6.072e-01           0.123           0.122           0.985       5.953e-01         -0.3783
 426       7.121e+00      -5.037e+00       5.486e-01           0.198           0.148           0.969       4.592e-01         -0.2665
 427       7.379e+00      -5.038e+00       4.876e-01           0.271           0.171           0.947       2.931e-01         -0.0412
 428       7.512e+00      -5.038e+00       4.476e-01           0.322           0.185           0.928       1.017e-01          0.1290
Strip 17
 429       7.052e+00      -3.624e+00       3.218e-01          -0.262          -0.168          -0.950       1.093e-01          0.3442
 430       6.909e+00      -3.623e+00       3.528e-01          -0.191          -0.147          -0.971       3.148e-01          0.4107
 431       6.631e+00      -3.623e+00       3.784e-01          -0.027          -0.093          -0.995       4.919e-01          0.4506
 432       6.234e+00      -3.623e+00       3.567e-01           0.116          -0.043          -0.992       6.502e-01          0.4027
 433       5.741e+00      -3.624e+00       2.713e-01           0.216          -0.003          -0.976       7.822e-01          0.2902
 434       5.182e+00      -3.624e+00       1.534e-01           0.197          -0.011          -0.980       8.542e-01          0.1257
 435       4.587e+00      -3.625e+00       7.345e-02           0.070          -0.068          -0.995       8.665e-01          0.0719
 436       3.993e+00      -3.625e+00       4.700e-02           0.018          -0.092          -0.996       8.410e-01          0.1360
 437       3.434e+00      -3.625e+00       4.694e-02          -0.019          -0.110          -0.994       7.683e-01          0.2178
 438       2.941e+00      -3.625e+00       6.597e-02          -0.061          -0.131          -0.989       6.522e-01          0.3218
 439       2.544e+00      -3.625e+00       1.049e-01          -0.143          -0.175          -0.974       5.026e-01          0.4912
 440       2.266e+00      -3.624e+00       1.667e-01          -0.313          -0.264          -0.912       3.348e-01          0.7252
 441       2.123e+00      -3.624e+00       2.602e-01          -0.745          -0.470          -0.474       2.184e-01          0.0615
 442       2.123e+00      -3.623e+00       3.735e-01          -0.770          -0.400           0.498       2.097e-01         -3.0249
 443       2.266e+00      -3.623e+00       4.640e-01          -0.302          -0.095           0.948       3.225e-01         -3.3802
 444       2.544e+00      -3.623e+00       5.219e-01          -0.138           0.000           0.990       4.944e-01         -1.6733
 445       2.941e+00      -3.622e+00       5.603e-01          -0.064           0.041           0.997       6.470e-01         -1.0881
 446       3.434e+00      -3.622e+00       5.823e-01          -0.028           0.060           0.998       7.647e-01         -0.7972
 447       3.993e+00      -3.622e+00       5.910e-01          -0.004           0.071           0.997       8.387e-01         -0.6345
 448       4.587e+00      -3.622e+00       5.878e-01           0.015           0.080           0.997       8.645e-01         -0.5350
 449       5.182e+00      -3.622e+00       5.726e-01           0.036           0.090           0.995       8.405e-01         -0.4692
 450       5.741e+00      -3.622e+00       5.432e-01           0.070           0.103           0.992       7.688e-01         -0.4227
 451       6.234e+00      -3.623e+00       4.963e-01           0.123           0.122           0.985       6.548e-01         -0.3738
 452       6.631e+00      -3.623e+00       4.331e-01           0.198           0.148           0.969       5.051e-01         -0.2645
 453       6.909e+00      -3.623e+00       3.675e-01           0.271           0.171           0.947       3.225e-01         -0.0419
 454       7.052e+00      -3.624e+00       3.243e-01           0.322           0.185           0.928       1.118e-01          0.1267
Strip 18
 455       6.585e+00      -2.184e+00       1.962e-01          -0.262          -0.168          -0.950       1.189e-01          0.3441
 456       6.431e+00      -2.184e+00       2.295e-01          -0.191          -0.147          -0.971       3.424e-01          0.4109
 457       6.133e+00      -2.184e+00       2.570e-01          -0.027          -0.093          -0.995       5.350e-01          0.4505
 458       5.707e+00      -2.184e+00       2.337e-01           0.116          -0.043          -0.992       7.072e-01          0.4010
 459       5.178e+00      -2.184e+00       1.420e-01           0.216          -0.003          -0.976       8.505e-01          0.2844
 460       4.578e+00      -2.185e+00       1.552e-02           0.197          -0.011          -0.980       9.289e-01          0.1130
 461       3.941e+00      -2.185e+00      -7.026e-02           0.070          -0.068          -0.995       9.424e-01          0.0543
 462       3.303e+00      -2.185e+00      -9.863e-02           0.018          -0.092          -0.996       9.147e-01          0.1162
 463       2.703e+00      -2.185e+00      -9.870e-02          -0.019          -0.110          -0.994       8.357e-01          0.1942
 464       2.174e+00      -2.185e+00      -7.828e-02          -0.061          -0.131          -0.989       7.094e-01          0.2914
 465       1.749e+00      -2.185e+00      -3.649e-02          -0.143          -0.175          -0.974       5.467e-01          0.4530
 466       1.450e+00      -2.185e+00       2.977e-02          -0.313          -0.264          -0.912       3.643e-01          0.7066
 467       1.296e+00      -2.184e+00       1.301e-01          -0.744          -0.470          -0.474       2.376e-01          0.2444
 468       1.296e+00      -2.184e+00       2.516e-01          -0.770          -0.400           0.497       2.280e-01         -2.5602
 469       1.450e+00      -2.184e+00       3.488e-01          -0.302          -0.095           0.948       3.506e-01         -3.0234
 470       1.749e+00      -2.183e+00       4.109e-01          -0.138           0.000           0.990       5.377e-01         -1.5237
 471       2.174e+00      -2.183e+00       4.521e-01          -0.064           0.041           0.997       7.036e-01         -1.0077
 472       2.703e+00      -2.183e+00       4.757e-01          -0.028           0.060           0.998       8.316e-01         -0.7522
 473       3.303e+00      -2.183e+00       4.850e-01          -0.004           0.071           0.997       9.122e-01         -0.6102
 474       3.941e+00      -2.183e+00       4.816e-01           0.015           0.080           0.997       9.402e-01         -0.5238
 475       4.578e+00      -2.183e+00       4.653e-01           0.036           0.090           0.995       9.142e-01         -0.4658
 476       5.178e+00      -2.183e+00       4.337e-01           0.070           0.103           0.992       8.362e-01         -0.4232
 477       5.707e+00      -2.184e+00       3.835e-01           0.123           0.122           0.985       7.122e-01         -0.3756
 478       6.133e+00      -2.184e+00       3.156e-01           0.198           0.148           0.969       5.494e-01         -0.2669
 479       6.431e+00      -2.184e+00       2.452e-01           0.271           0.170           0.947       3.508e-01         -0.0453
 480       6.585e+00      -2.184e+00       1.989e-01           0.322           0.185           0.928       1.217e-01          0.1226
Strip 19
 481       6.112e+00      -7.297e-01       6.929e-02          -0.262          -0.168          -0.950       1.279e-01          0.3469
 482       5.948e+00      -7.297e-01       1.049e-01          -0.191          -0.147          -0.971       3.685e-01          0.4119
 483       5.629e+00      -7.296e-01       1.343e-01          -0.027          -0.093          -0.995       5.756e-01          0.4499
 484       5.174e+00      -7.297e-01       1.094e-01           0.116          -0.043          -0.992       7.607e-01          0.3936
 485       4.609e+00      -7.297e-01       1.144e-02           0.216          -0.003          -0.976       9.149e-01          0.2673
 486       3.968e+00      -7.299e-01      -1.238e-01           0.197          -0.011          -0.980       9.992e-01          0.0898
 487       3.287e+00      -7.299e-01      -2.154e-01           0.070          -0.068          -0.995       1.014e+00          0.0362
 488       2.606e+00      -7.300e-01      -2.458e-01           0.018          -0.092          -0.996       9.840e-01          0.1059
 489       1.964e+00      -7.300e-01      -2.458e-01          -0.019          -0.110          -0.994       8.991e-01          0.1844
 490       1.400e+00      -7.300e-01      -2.240e-01          -0.061          -0.131          -0.989       7.632e-01          0.2751
 491       9.448e-01      -7.299e-01      -1.794e-01          -0.143          -0.175          -0.974       5.883e-01          0.4233
 492       6.260e-01      -7.298e-01      -1.086e-01          -0.313          -0.264          -0.912       3.920e-01          0.6772
 493       4.618e-01      -7.298e-01      -1.351e-03          -0.744          -0.470          -0.475       2.558e-01          0.4738
 494       4.618e-01      -7.296e-01       1.286e-01          -0.770          -0.400           0.496       2.452e-01         -1.8565
 495       6.260e-01      -7.295e-01       2.323e-01          -0.302          -0.095           0.948       3.771e-01         -2.4197
 496       9.448e-01      -7.295e-01       2.987e-01          -0.138           0.000           0.990       5.783e-01         -1.2634
 497       1.400e+00      -7.294e-01       3.428e-01          -0.064           0.041           0.997       7.569e-01         -0.8869
 498       1.964e+00      -7.294e-01       3.680e-01          -0.028           0.060           0.998       8.947e-01         -0.7026
 499       2.606e+00      -7.294e-01       3.779e-01          -0.004           0.071           0.997       9.814e-01         -0.5937
 500       3.287e+00      -7.294e-01       3.743e-01           0.015           0.080           0.997       1.012e+00         -0.5280
 501       3.968e+00      -7.294e-01       3.569e-01           0.036           0.090           0.995       9.835e-01         -0.4838
 502       4.609e+00      -7.295e-01       3.231e-01           0.070           0.103           0.992       8.997e-01         -0.4477
 503       5.174e+00      -7.295e-01       2.694e-01           0.123           0.122           0.985       7.663e-01         -0.4000
 504       5.629e+00      -7.296e-01       1.969e-01           0.198           0.148           0.969       5.912e-01         -0.2867
 505       5.948e+00      -7.296e-01       1.217e-01           0.271           0.170           0.947       3.775e-01         -0.0588
 506       6.112e+00      -7.297e-01       7.223e-02           0.322           0.185           0.928       1.309e-01          0.1107
Strip 20
 507       6.112e+00       7.297e-01       6.929e-02          -0.262           0.168          -0.950       1.279e-01          0.3469
 508       5.948e+00       7.297e-01       1.049e-01          -0.191           0.147          -0.971       3.685e-01          0.4119
 509       5.629e+00       7.296e-01       1.343e-01          -0.027           0.093          -0.995       5.756e-01          0.4499
 510       5.174e+00       7.297e-01       1.094e-01           0.116           0.043          -0.992       7.607e-01          0.3936
 511       4.609e+00       7.297e-01       1.144e-02           0.216           0.003          -0.976       9.149e-01          0.2673
 512       3.968e+00       7.299e-01      -1.238e-01           0.197           0.011          -0.980       9.992e-01          0.0898
 513       3.287e+00       7.299e-01      -2.154e-01           0.070           0.068          -0.995       1.014e+00          0.0362
 514       2.606e+00       7.300e-01      -2.458e-01           0.018           0.092          -0.996       9.840e-01          0.1059
 515       1.964e+00       7.300e-01      -2.458e-01          -0.019           0.110          -0.994       8.991e-01          0.1844
 516       1.400e+00       7.300e-01      -2.240e-01          -0.061           0.131          -0.989       7.632e-01          0.2751
 517       9.448e-01       7.299e-01      -1.794e-01          -0.143           0.175          -0.974       5.883e-01          0.4233
 518       6.260e-01       7.298e-01      -1.086e-01          -0.313           0.264          -0.912       3.920e-01          0.6772
 519       4.618e-01       7.298e-01      -1.351e-03          -0.744           0.470          -0.475       2.558e-01          0.4738
 520       4.618e-01       7.296e-01       1.286e-01          -0.770           0.400           0.496       2.452e-01         -1.8565
 521       6.260e-01       7.295e-01       2.323e-01          -0.302           0.095           0.948       3.771e-01         -2.4197
 522       9.448e-01       7.295e-01       2.987e-01          -0.138          -0.000           0.990       5.783e-01         -1.2634
 523       1.400e+00       7.294e-01       3.428e-01          -0.064          -0.041           0.997       7.569e-01         -0.8869
 524       1.964e+00       7.294e-01       3.680e-01          -0.028          -0.060           0.998       8.947e-01         -0.7026
 525       2.606e+00       7.294e-01       3.779e-01          -0.004          -0.071           0.997       9.814e-01         -0.5937
 526       3.287e+00       7.294e-01       3.743e-01           0.015          -0.080           0.997       1.012e+00         -0.5280
 527       3.968e+00       7.294e-01       3.569e-01           0.036          -0.090           0.995       9.835e-01         -0.4838
 528       4.609e+00       7.295e-01       3.231e-01           0.070          -0.103           0.992       8.997e-01         -0.4477
 529       5.174e+00       7.295e-01       2.694e-01           0.123          -0.122           0.985       7.663e-01         -0.4000
 530       5.629e+00       7.296e-01       1.969e-01           0.198          -0.148           0.969       5.912e-01         -0.2867
 531       5.948e+00       7.296e-01       1.217e-01           0.271          -0.170           0.947       3.775e-01         -0.0588
 532       6.112e+00       7.297e-01       7.223e-02           0.322          -0.185           0.928       1.309e-01          0.1107
Strip 21
 533       6.585e+00       2.184e+00       1.962e-01          -0.262           0.168          -0.950       1.189e-01          0.3441
 534       6.431e+00       2.184e+00       2.295e-01          -0.191           0.147          -0.971       3.424e-01          0.4109
 535       6.133e+00       2.184e+00       2.570e-01          -0.027           0.093          -0.995       5.350e-01          0.4505
 536       5.707e+00       2.184e+00       2.337e-01           0.116           0.043          -0.992       7.072e-01          0.4010
 537       5.178e+00       2.184e+00       1.420e-01           0.216           0.003          -0.976       8.505e-01          0.2844
 538       4.578e+00       2.185e+00       1.552e-02           0.197           0.011          -0.980       9.289e-01          0.1130
 539       3.941e+00       2.185e+00      -7.026e-02           0.070           0.068          -0.995       9.424e-01          0.0543
 540       3.303e+00       2.185e+00      -9.863e-02           0.018           0.092          -0.996       9.147e-01          0.1162
 541       2.703e+00       2.185e+00      -9.870e-02          -0.019           0.110          -0.994       8.357e-01          0.1942
 542       2.174e+00       2.185e+00      -7.828e-02          -0.061           0.131          -0.989       7.094e-01          0.2914
 543       1.749e+00       2.185e+00      -3.649e-02          -0.143           0.175          -0.974       5.467e-01          0.4530
 544       1.450e+00       2.185e+00       2.977e-02          -0.313           0.264          -0.912       3.643e-01          0.7066
 545       1.296e+00       2.184e+00       1.301e-01          -0.744           0.470          -0.474       2.376e-01          0.2444
 546       1.296e+00       2.184e+00       2.516e-01          -0.770           0.400           0.497       2.280e-01         -2.5602
 547       1.450e+00       2.184e+00       3.488e-01          -0.302           0.095           0.948       3.506e-01         -3.0234
 548       1.749e+00       2.183e+00       4.109e-01          -0.138          -0.000           0.990       5.377e-01         -1.5237
 549       2.174e+00       2.183e+00       4.521e-01          -0.064          -0.041           0.997       7.036e-01         -1.0077
 550       2.703e+00       2.183e+00       4.757e-01          -0.028          -0.060           0.998       8.316e-01         -0.7522
 551       3.303e+00       2.183e+00       4.850e-01          -0.004          -0.071           0.997       9.122e-01         -0.6102
 552       3.941e+00       2.183e+00       4.816e-01           0.015          -0.080           0.997       9.402e-01         -0.5238
 553       4.578e+00       2.183e+00       4.653e-01           0.036          -0.090           0.995       9.142e-01         -0.4658
 554       5.178e+00       2.183e+00       4.337e-01           0.070          -0.103           0.992       8.362e-01         -0.4232
 555       5.707e+00       2.184e+00       3.835e-01           0.123          -0.122           0.985       7.122e-01         -0.3756
 556       6.133e+00       2.184e+00       3.156e-01           0.198          -0.148           0.969       5.494e-01         -0.2669
 557       6.431e+00       2.184e+00       2.452e-01           0.271          -0.170           0.947       3.508e-01         -0.0453
 558       6.585e+00       2.184e+00       1.989e-01           0.322          -0.185           0.928       1.217e-01          0.1226
Strip 22
 559       7.052e+00       3.624e+00       3.218e-01          -0.262           0.168          -0.950       1.093e-01          0.3442
 560       6.909e+00       3.623e+00       3.528e-01          -0.191           0.147          -0.971       3.148e-01          0.4107
 561       6.631e+00       3.623e+00       3.784e-01          -0.027           0.093          -0.995       4.919e-01          0.4506
 562       6.234e+00       3.623e+00       3.567e-01           0.116           0.043          -0.992       6.502e-01          0.4027
 563       5.741e+00       3.624e+00       2.713e-01           0.216           0.003          -0.976       7.822e-01          0.2902
 564       5.182e+00       3.624e+00       1.534e-01           0.197           0.011          -0.980       8.542e-01          0.1257
 565       4.587e+00       3.625e+00       7.345e-02           0.070           0.068          -0.995       8.665e-01          0.0719
 566       3.993e+00       3.625e+00       4.700e-02           0.018           0.092          -0.996       8.410e-01          0.1360
 567       3.434e+00       3.625e+00       4.694e-02          -0.019           0.110          -0.994       7.683e-01          0.2178
[...]
 852       9.861e+00       1.587e+01       1.285e+00           0.018           0.092          -0.996       1.441e-01          0.2180
 853       9.648e+00       1.587e+01       1.285e+00          -0.019           0.110          -0.994       1.315e-01          0.3241
 854       9.460e+00       1.587e+01       1.292e+00          -0.061           0.132          -0.989       1.115e-01          0.4568
 855       9.308e+00       1.587e+01       1.307e+00          -0.144           0.175          -0.974       8.572e-02          0.6345
 856       9.202e+00       1.587e+01       1.331e+00          -0.316           0.266          -0.911       5.683e-02          0.6571
 857       9.147e+00       1.586e+01       1.366e+00          -0.754           0.474          -0.456       3.697e-02         -1.1515
 858       9.147e+00       1.586e+01       1.409e+00          -0.761           0.393           0.516       3.632e-02         -5.3241
 859       9.202e+00       1.586e+01       1.444e+00          -0.299           0.094           0.950       5.572e-02         -4.9583
 860       9.308e+00       1.586e+01       1.466e+00          -0.137          -0.001           0.991       8.503e-02         -2.3293
 861       9.460e+00       1.586e+01       1.480e+00          -0.064          -0.041           0.997       1.110e-01         -1.4533
 862       9.648e+00       1.586e+01       1.489e+00          -0.028          -0.060           0.998       1.311e-01         -1.0232
 863       9.861e+00       1.586e+01       1.492e+00          -0.004          -0.071           0.997       1.437e-01         -0.7815
 864       1.009e+01       1.586e+01       1.491e+00           0.015          -0.080           0.997       1.480e-01         -0.6323
 865       1.031e+01       1.586e+01       1.485e+00           0.036          -0.090           0.995       1.438e-01         -0.5357
 866       1.053e+01       1.586e+01       1.474e+00           0.070          -0.103           0.992       1.315e-01         -0.4715
 867       1.072e+01       1.586e+01       1.456e+00           0.123          -0.122           0.985       1.119e-01         -0.4104
 868       1.087e+01       1.586e+01       1.432e+00           0.199          -0.148           0.969       8.620e-02         -0.2876
 869       1.097e+01       1.586e+01       1.407e+00           0.272          -0.171           0.947       5.497e-02         -0.0489
 870       1.103e+01       1.586e+01       1.391e+00           0.324          -0.186           0.928       1.905e-02          0.1303
Strip 34
 871       1.122e+01       1.645e+01       1.441e+00          -0.264           0.168          -0.950       1.422e-02          0.3110
 872       1.117e+01       1.645e+01       1.452e+00          -0.192           0.147          -0.970       4.101e-02          0.3720
 873       1.107e+01       1.645e+01       1.461e+00          -0.027           0.093          -0.995       6.429e-02          0.4068
 874       1.093e+01       1.645e+01       1.453e+00           0.115           0.043          -0.992       8.525e-02          0.3608
 875       1.076e+01       1.645e+01       1.423e+00           0.215           0.003          -0.977       1.028e-01          0.2619
 876       1.056e+01       1.645e+01       1.382e+00           0.196           0.012          -0.981       1.123e-01          0.1277
 877       1.035e+01       1.646e+01       1.354e+00           0.070           0.068          -0.995       1.135e-01          0.1035
 878       1.014e+01       1.646e+01       1.345e+00           0.018           0.092          -0.996       1.100e-01          0.1896
 879       9.945e+00       1.646e+01       1.345e+00          -0.019           0.110          -0.994       1.004e-01          0.2983
 880       9.772e+00       1.646e+01       1.351e+00          -0.061           0.132          -0.989       8.511e-02          0.4347
 881       9.632e+00       1.645e+01       1.365e+00          -0.144           0.175          -0.974       6.540e-02          0.6183
 882       9.534e+00       1.645e+01       1.386e+00          -0.316           0.266          -0.911       4.333e-02          0.6608
 883       9.484e+00       1.645e+01       1.419e+00          -0.755           0.474          -0.453       2.818e-02         -1.0881
 884       9.484e+00       1.645e+01       1.459e+00          -0.760           0.392           0.518       2.777e-02         -5.1670
 885       9.534e+00       1.645e+01       1.491e+00          -0.299           0.093           0.950       4.259e-02         -4.8353
 886       9.632e+00       1.644e+01       1.511e+00          -0.137          -0.001           0.991       6.495e-02         -2.2707
 887       9.772e+00       1.644e+01       1.524e+00          -0.064          -0.041           0.997       8.478e-02         -1.4100
 888       9.945e+00       1.644e+01       1.532e+00          -0.028          -0.060           0.998       1.001e-01         -0.9856
 889       1.014e+01       1.644e+01       1.535e+00          -0.004          -0.071           0.997       1.097e-01         -0.7468
 890       1.035e+01       1.644e+01       1.534e+00           0.015          -0.080           0.997       1.130e-01         -0.6007
 891       1.056e+01       1.644e+01       1.529e+00           0.036          -0.090           0.995       1.098e-01         -0.5087
 892       1.076e+01       1.644e+01       1.518e+00           0.070          -0.103           0.992       1.004e-01         -0.4513
 893       1.093e+01       1.645e+01       1.502e+00           0.123          -0.122           0.985       8.539e-02         -0.3981
 894       1.107e+01       1.645e+01       1.480e+00           0.199          -0.148           0.969       6.577e-02         -0.2826
 895       1.117e+01       1.645e+01       1.457e+00           0.273          -0.171           0.947       4.194e-02         -0.0497
 896       1.122e+01       1.645e+01       1.442e+00           0.324          -0.186           0.928       1.454e-02          0.1270
Strip 35
 897       1.137e+01       1.692e+01       1.482e+00          -0.264           0.169          -0.950       1.040e-02          0.2763
 898       1.133e+01       1.692e+01       1.492e+00          -0.192           0.147          -0.970       2.999e-02          0.3323
 899       1.123e+01       1.692e+01       1.501e+00          -0.027           0.093          -0.995       4.703e-02          0.3617
 900       1.110e+01       1.692e+01       1.494e+00           0.115           0.043          -0.992       6.238e-02          0.3133
 901       1.094e+01       1.692e+01       1.466e+00           0.215           0.004          -0.977       7.525e-02          0.2131
 902       1.076e+01       1.693e+01       1.427e+00           0.196           0.012          -0.981       8.217e-02          0.0758
 903       1.056e+01       1.693e+01       1.401e+00           0.070           0.068          -0.995       8.307e-02          0.0480
 904       1.037e+01       1.693e+01       1.393e+00           0.018           0.092          -0.996       8.050e-02          0.1334
 905       1.019e+01       1.693e+01       1.393e+00          -0.019           0.110          -0.994       7.345e-02          0.2448
 906       1.002e+01       1.693e+01       1.399e+00          -0.061           0.132          -0.989       6.225e-02          0.3870
 907       9.894e+00       1.693e+01       1.411e+00          -0.144           0.175          -0.974       4.782e-02          0.5819
 908       9.803e+00       1.693e+01       1.432e+00          -0.317           0.266          -0.910       3.167e-02          0.6676
 909       9.756e+00       1.692e+01       1.462e+00          -0.756           0.475          -0.451       2.059e-02         -0.9350
 910       9.756e+00       1.692e+01       1.499e+00          -0.759           0.391           0.520       2.035e-02         -4.8379
 911       9.803e+00       1.692e+01       1.529e+00          -0.299           0.093           0.950       3.119e-02         -4.5861
 912       9.894e+00       1.692e+01       1.547e+00          -0.137          -0.001           0.991       4.754e-02         -2.1499
 913       1.002e+01       1.692e+01       1.560e+00          -0.064          -0.041           0.997       6.204e-02         -1.3219
 914       1.019e+01       1.692e+01       1.567e+00          -0.028          -0.060           0.998       7.322e-02         -0.9114
 915       1.037e+01       1.692e+01       1.570e+00          -0.004          -0.071           0.997       8.025e-02         -0.6816
 916       1.056e+01       1.692e+01       1.569e+00           0.015          -0.080           0.997       8.266e-02         -0.5452
 917       1.076e+01       1.692e+01       1.564e+00           0.036          -0.090           0.995       8.032e-02         -0.4654
 918       1.094e+01       1.692e+01       1.554e+00           0.070          -0.103           0.992       7.341e-02         -0.4231
 919       1.110e+01       1.692e+01       1.539e+00           0.123          -0.122           0.985       6.245e-02         -0.3859
 920       1.123e+01       1.692e+01       1.518e+00           0.199          -0.148           0.969       4.810e-02         -0.2836
 921       1.133e+01       1.692e+01       1.497e+00           0.273          -0.171           0.947       3.067e-02         -0.0599
 922       1.137e+01       1.692e+01       1.483e+00           0.324          -0.186           0.928       1.063e-02          0.1134
Strip 36
 923       1.149e+01       1.728e+01       1.513e+00          -0.264           0.169          -0.950       7.061e-03          0.1779
 924       1.145e+01       1.728e+01       1.523e+00          -0.192           0.147          -0.970       2.037e-02          0.2236
 925       1.136e+01       1.728e+01       1.531e+00          -0.027           0.093          -0.995       3.195e-02          0.2460
 926       1.124e+01       1.728e+01       1.524e+00           0.115           0.043          -0.992       4.240e-02          0.2023
 927       1.108e+01       1.728e+01       1.498e+00           0.215           0.004          -0.977       5.116e-02          0.1130
 928       1.091e+01       1.729e+01       1.462e+00           0.196           0.012          -0.981       5.587e-02         -0.0159
 929       1.073e+01       1.729e+01       1.437e+00           0.070           0.068          -0.995       5.646e-02         -0.0451
 930       1.054e+01       1.729e+01       1.429e+00           0.018           0.092          -0.996       5.470e-02          0.0330
 931       1.037e+01       1.729e+01       1.429e+00          -0.019           0.110          -0.994       4.991e-02          0.1391
 932       1.021e+01       1.729e+01       1.435e+00          -0.061           0.132          -0.989       4.229e-02          0.2848
 933       1.009e+01       1.729e+01       1.447e+00          -0.144           0.175          -0.974       3.248e-02          0.4979
 934       1.001e+01       1.729e+01       1.466e+00          -0.317           0.266          -0.910       2.150e-02          0.6568
 935       9.961e+00       1.728e+01       1.494e+00          -0.757           0.475          -0.449       1.397e-02         -0.6865
 936       9.961e+00       1.728e+01       1.529e+00          -0.758           0.391           0.522       1.384e-02         -4.2997
 937       1.001e+01       1.728e+01       1.557e+00          -0.298           0.093           0.950       2.121e-02         -4.1742
 938       1.009e+01       1.728e+01       1.575e+00          -0.137          -0.001           0.991       3.232e-02         -1.9415
 939       1.021e+01       1.728e+01       1.587e+00          -0.064          -0.041           0.997       4.216e-02         -1.1700
 940       1.037e+01       1.728e+01       1.594e+00          -0.028          -0.060           0.998       4.976e-02         -0.7900
 941       1.054e+01       1.727e+01       1.596e+00          -0.004          -0.071           0.997       5.453e-02         -0.5881
 942       1.073e+01       1.727e+01       1.595e+00           0.015          -0.080           0.997       5.617e-02         -0.4814
 943       1.091e+01       1.728e+01       1.591e+00           0.036          -0.090           0.995       5.457e-02         -0.4309
 944       1.108e+01       1.728e+01       1.582e+00           0.070          -0.103           0.992       4.988e-02         -0.4177
 945       1.124e+01       1.728e+01       1.567e+00           0.123          -0.122           0.985       4.242e-02         -0.4100
 946       1.136e+01       1.728e+01       1.548e+00           0.199          -0.148           0.969       3.267e-02         -0.3317
 947       1.145e+01       1.728e+01       1.527e+00           0.273          -0.171           0.947       2.083e-02         -0.1213
 948       1.149e+01       1.728e+01       1.514e+00           0.324          -0.186           0.927       7.217e-03          0.0485
Strip 37
 949       1.157e+01       1.752e+01       1.534e+00          -0.264           0.169          -0.950       4.088e-03         -0.2853
 950       1.152e+01       1.752e+01       1.544e+00          -0.192           0.147          -0.970       1.179e-02         -0.2779
 951       1.144e+01       1.752e+01       1.551e+00          -0.027           0.093          -0.995       1.851e-02         -0.2320
 952       1.132e+01       1.752e+01       1.545e+00           0.115           0.043          -0.992       2.456e-02         -0.1772
 953       1.118e+01       1.752e+01       1.519e+00           0.215           0.004          -0.977       2.964e-02         -0.1449
 954       1.101e+01       1.753e+01       1.485e+00           0.196           0.012          -0.981       3.237e-02         -0.1836
 955       1.083e+01       1.753e+01       1.461e+00           0.070           0.068          -0.995       3.270e-02         -0.1872
 956       1.066e+01       1.753e+01       1.453e+00           0.018           0.092          -0.996       3.168e-02         -0.1191
 957       1.049e+01       1.753e+01       1.453e+00          -0.019           0.110          -0.994       2.890e-02         -0.0376
 958       1.034e+01       1.753e+01       1.459e+00          -0.061           0.132          -0.989       2.449e-02          0.0803
 959       1.022e+01       1.753e+01       1.470e+00          -0.144           0.175          -0.974       1.881e-02          0.2874
 960       1.014e+01       1.753e+01       1.488e+00          -0.317           0.266          -0.910       1.244e-02          0.5344
 961       1.010e+01       1.752e+01       1.516e+00          -0.758           0.475          -0.447       8.084e-03         -0.4113
 962       1.010e+01       1.752e+01       1.550e+00          -0.757           0.390           0.524       8.025e-03         -3.5306
 963       1.014e+01       1.752e+01       1.576e+00          -0.298           0.093           0.950       1.229e-02         -3.5533
 964       1.022e+01       1.752e+01       1.594e+00          -0.137          -0.001           0.991       1.872e-02         -1.6097
 965       1.034e+01       1.752e+01       1.605e+00          -0.064          -0.041           0.997       2.442e-02         -0.9490
 966       1.049e+01       1.752e+01       1.611e+00          -0.028          -0.060           0.998       2.882e-02         -0.6571
 967       1.066e+01       1.751e+01       1.614e+00          -0.004          -0.071           0.997       3.158e-02         -0.5305
 968       1.083e+01       1.752e+01       1.613e+00           0.015          -0.080           0.997       3.253e-02         -0.4865
 969       1.101e+01       1.752e+01       1.609e+00           0.036          -0.090           0.995       3.161e-02         -0.4999
 970       1.118e+01       1.752e+01       1.600e+00           0.070          -0.103           0.992       2.888e-02         -0.5684
 971       1.132e+01       1.752e+01       1.586e+00           0.123          -0.122           0.985       2.457e-02         -0.6679
 972       1.144e+01       1.752e+01       1.567e+00           0.199          -0.148           0.969       1.891e-02         -0.6916
 973       1.152e+01       1.752e+01       1.548e+00           0.273          -0.171           0.947       1.206e-02         -0.5298
 974       1.157e+01       1.752e+01       1.535e+00           0.324          -0.186           0.927       4.178e-03         -0.3761
Strip 38
 975       1.161e+01       1.764e+01       1.545e+00          -0.264           0.169          -0.950       1.338e-03         -0.8421
 976       1.156e+01       1.764e+01       1.554e+00          -0.192           0.147          -0.970       3.859e-03         -0.9162
 977       1.148e+01       1.764e+01       1.561e+00          -0.027           0.093          -0.995       6.056e-03         -0.8713
 978       1.137e+01       1.764e+01       1.555e+00           0.115           0.043          -0.992       8.039e-03         -0.6970
 979       1.122e+01       1.764e+01       1.530e+00           0.215           0.004          -0.977       9.702e-03         -0.4954
 980       1.106e+01       1.765e+01       1.496e+00           0.196           0.012          -0.981       1.059e-02         -0.3756
 981       1.089e+01       1.765e+01       1.473e+00           0.070           0.068          -0.995       1.070e-02         -0.3061
 982       1.071e+01       1.765e+01       1.465e+00           0.018           0.092          -0.996       1.037e-02         -0.2337
 983       1.055e+01       1.765e+01       1.465e+00          -0.019           0.110          -0.994       9.459e-03         -0.1676
 984       1.041e+01       1.765e+01       1.471e+00          -0.061           0.132          -0.989       8.015e-03         -0.0768
 985       1.029e+01       1.765e+01       1.482e+00          -0.144           0.175          -0.974       6.153e-03          0.0931
 986       1.021e+01       1.765e+01       1.500e+00          -0.318           0.266          -0.910       4.070e-03          0.3850
 987       1.017e+01       1.764e+01       1.527e+00          -0.758           0.475          -0.447       2.644e-03         -0.0685
 988       1.017e+01       1.764e+01       1.560e+00          -0.757           0.390           0.525       2.628e-03         -2.5226
 989       1.021e+01       1.764e+01       1.586e+00          -0.298           0.093           0.950       4.025e-03         -2.6855
 990       1.029e+01       1.764e+01       1.603e+00          -0.137          -0.001           0.991       6.129e-03         -1.1877
 991       1.041e+01       1.764e+01       1.614e+00          -0.064          -0.041           0.997       7.994e-03         -0.7419
 992       1.055e+01       1.764e+01       1.620e+00          -0.028          -0.060           0.998       9.432e-03         -0.5750
 993       1.071e+01       1.764e+01       1.623e+00          -0.004          -0.071           0.997       1.034e-02         -0.5116
 994       1.089e+01       1.764e+01       1.622e+00           0.015          -0.080           0.997       1.065e-02         -0.4949
 995       1.106e+01       1.764e+01       1.618e+00           0.036          -0.090           0.995       1.034e-02         -0.5283
 996       1.122e+01       1.764e+01       1.609e+00           0.070          -0.103           0.992       9.452e-03         -0.6448
 997       1.137e+01       1.764e+01       1.595e+00           0.123          -0.122           0.985       8.038e-03         -0.8587
 998       1.148e+01       1.764e+01       1.577e+00           0.199          -0.148           0.969       6.189e-03         -1.0535
 999       1.156e+01       1.764e+01       1.558e+00           0.273          -0.171           0.947       3.945e-03         -0.9864
1000       1.161e+01       1.764e+01       1.546e+00           0.324          -0.186           0.927       1.367e-03         -0.8667










